                                   MODFLOW 6
                U.S. GEOLOGICAL SURVEY MODULAR HYDROLOGIC MODEL
                          GROUNDWATER FLOW MODEL (GWF)
                   VERSION 6.4.0 release candidate 07/06/2022
                               ***DEVELOP MODE***

   MODFLOW 6 compiled Jul 06 2022 19:38:41 with Intel(R) Fortran Intel(R) 64
   Compiler Classic for applications running on Intel(R) 64, Version 2021.6.0
                             Build 20220226_000000

This software is preliminary or provisional and is subject to 
revision. It is being provided to meet the need for timely best 
science. The software has not received final approval by the U.S. 
Geological Survey (USGS). No warranty, expressed or implied, is made 
by the USGS or the U.S. Government as to the functionality of the 
software and related material nor shall the fact of release 
constitute any such warranty. The software is provided on the 
condition that neither the USGS nor the U.S. Government shall be held 
liable for any damages resulting from the authorized or unauthorized 
use of the software.


As a work of the United States Government, this USGS product is 
in the public domain within the United States. You can copy, 
modify, distribute, and perform the work, even for commercial 
purposes, all without asking permission. Additionally, USGS 
waives copyright and related rights in the work worldwide 
through CC0 1.0 Universal Public Domain Dedication 
(https://creativecommons.org/publicdomain/zero/1.0/).

The following GNU Lesser General Public License (LGPL) libraries
are used in this USGS product:

    SPARSKIT version 2.0
      ilut, luson, and qsplit 
      (https://www-users.cse.umn.edu/~saad/software/SPARSKIT/)

    RCM - Reverse Cuthill McKee Ordering
      (https://people.math.sc.edu/Burkardt/f_src/rcm/rcm.html)

    BLAS - Basic Linear Algebra Subprograms Level 1
      (https://people.math.sc.edu/Burkardt/f_src/blas1_d/blas1_d.html)

    SPARSEKIT - Sparse Matrix Utility Package
      amux, dperm, dvperm, rperm, and cperm
      (https://people.sc.fsu.edu/~jburkardt/f77_src/sparsekit/sparsekit.html)

The following BSD-3 License libraries are used in this USGS product:

    Modern Fortran DAG Library
      Copyright (c) 2018, Jacob Williams
      All rights reserved.
      (https://github.com/jacobwilliams/daglib)

MODFLOW 6 compiler options: /Isrc\libmf6core.a.p /Isrc /I..\src
/Isrc\libmf6_external.a.p /MTd /nologo /warn:general /warn:truncated_source
/stand:f08 /Zi /traceback /O2 /Zi /fpe:0 /heap-arrays:0 /traceback /fpp
/Qdiag-disable:7416 /Qdiag-disable:7025 /Qdiag-disable:5268
/Fdsrc\libmf6core.a.p\Utilities_compilerversion.F90.pdb
/module:src\libmf6core.a.p
/Fosrc/libmf6core.a.p/Utilities_compilerversion.F90.obj /c

System command used to initiate simulation:
d:\Workspace\hugm0001\anaconda\python.exe -m ipykernel_launcher --ip=127.0.0.1 --stdin=9028 --control=9026 --hb=9025 "--Session.signature_scheme=\"hmac-sha256\"" "--Session.key=b\"ac3abf1b-359c-436c-aabe-969c9a216fc6\"" --shell=9027 "--transport=\"tcp\"" --iopub=9029 --f=c:\Users\hugm0001\AppData\Roaming\jupyter\runtime\kernel-v2-8744bFUieO8qOGpr.json

MODFLOW was compiled using uniform precision.

Real Variables
  KIND: 8
  TINY (smallest non-zero value):    2.225074-308
  HUGE (largest value):    1.797693+308
  PRECISION: 15
  BIT SIZE: 64

Integer Variables
  KIND: 4
  HUGE (largest value): 2147483647
  BIT SIZE: 32

Long Integer Variables
  KIND: 8
  HUGE (largest value): 9223372036854775807
  BIT SIZE: 64

Logical Variables
  KIND: 4
  BIT SIZE: 32
 

 OPENED gwf.dis
 FILE TYPE:DIS6                   UNIT 1084   STATUS:OLD                 
 FORMAT:FORMATTED              ACCESS:SEQUENTIAL          
 ACTION:READ                


 OPENED gwf.ic
 FILE TYPE:IC6                    UNIT 1085   STATUS:OLD                 
 FORMAT:FORMATTED              ACCESS:SEQUENTIAL          
 ACTION:READ                


 OPENED gwf.npf
 FILE TYPE:NPF6                   UNIT 1086   STATUS:OLD                 
 FORMAT:FORMATTED              ACCESS:SEQUENTIAL          
 ACTION:READ                


 OPENED gwf.chd
 FILE TYPE:CHD6                   UNIT 1087   STATUS:OLD                 
 FORMAT:FORMATTED              ACCESS:SEQUENTIAL          
 ACTION:READ                


 OPENED gwf.oc
 FILE TYPE:OC6                    UNIT 1088   STATUS:OLD                 
 FORMAT:FORMATTED              ACCESS:SEQUENTIAL          
 ACTION:READ                


 OPENED gwf.sto
 FILE TYPE:STO6                   UNIT 1089   STATUS:OLD                 
 FORMAT:FORMATTED              ACCESS:SEQUENTIAL          
 ACTION:READ                


 OPENED gwf.wel
 FILE TYPE:WEL6                   UNIT 1090   STATUS:OLD                 
 FORMAT:FORMATTED              ACCESS:SEQUENTIAL          
 ACTION:READ                


 OPENED gwf.drn
 FILE TYPE:DRN6                   UNIT 1091   STATUS:OLD                 
 FORMAT:FORMATTED              ACCESS:SEQUENTIAL          
 ACTION:READ                


 OPENED gwf.api
 FILE TYPE:API6                   UNIT 1092   STATUS:OLD                 
 FORMAT:FORMATTED              ACCESS:SEQUENTIAL          
 ACTION:READ                

 NAMEFILE OPTIONS:
    PACKAGE FLOWS WILL BE PRINTED FOR ALL MODEL PACKAGES
    FLOWS WILL BE SAVED TO BUDGET FILE SPECIFIED IN OUTPUT CONTROL
    NEWTON-RAPHSON method enabled for the model.

 DIS -- STRUCTURED GRID DISCRETIZATION PACKAGE, VERSION 2 : 3/27/2014 - INPUT READ FROM UNIT 1084


 # File generated by Flopy version 3.3.6 on 07/16/2022 at 15:08:32.
 PROCESSING DISCRETIZATION OPTIONS
 END OF DISCRETIZATION OPTIONS
 MODEL LENGTH UNIT IS UNDEFINED
 PROCESSING DISCRETIZATION DIMENSIONS
    NLAY =       1
    NROW =      15
    NCOL =      10
 END OF DISCRETIZATION DIMENSIONS
 PROCESSING GRIDDATA

                     DELR =   100.0000    

                     DELC =   100.0000    

 TOP ELEVATION OF LAYER 1 =   1.000000    

   MODEL LAYER BOTTOM EL. =  -10.00000    
 END PROCESSING GRIDDATA

 NPF -- NODE PROPERTY FLOW PACKAGE, VERSION 1, 3/30/2015 INPUT READ FROM UNIT 1086


 # File generated by Flopy version 3.3.6 on 07/16/2022 at 15:08:32.
 PROCESSING NPF OPTIONS
    CELL-BY-CELL FLOW INFORMATION WILL BE SAVED TO BINARY FILE WHENEVER ICBCFL IS NOT ZERO.
    SPECIFIC DISCHARGE WILL BE CALCULATED AT CELL CENTERS AND WRITTEN TO DATA-SPDIS IN BUDGET FILE WHEN REQUESTED.
 END OF NPF OPTIONS

 WEL   -- WEL PACKAGE, VERSION 8, 2/22/2014 INPUT READ FROM UNIT 1090
 # File generated by Flopy version 3.3.6 on 07/16/2022 at 15:08:32.

 PROCESSING WEL OPTIONS
    WEL BOUNDARIES HAVE NAMES IN LAST COLUMN.
    AUTOMATIC FLOW REDUCTION OF WELLS IMPLEMENTED.
    AUTOMATIC FLOW REDUCTION FRACTION (  0.1000000    ).

 OPENED hd1h_well_reduce.csv
 FILE TYPE:CSV   UNIT 1094   STATUS:REPLACE             
 FORMAT:FORMATTED              ACCESS:SEQUENTIAL          
 ACTION:READWRITE           

    AUTO FLOW REDUCE INFORMATION WILL BE SAVED TO FILE: hd1h_well_reduce.csv
    OPENED ON UNIT: 1094

 OPENED gwf.wel.obs
 FILE TYPE:OBS   UNIT 1095   STATUS:OLD                 
 FORMAT:FORMATTED              ACCESS:SEQUENTIAL          
 ACTION:READ                

 END OF WEL OPTIONS

 PROCESSING WEL DIMENSIONS
    MAXBOUND =       1
 END OF WEL DIMENSIONS

 DRN   -- DRN PACKAGE, VERSION 8, 2/22/2014 INPUT READ FROM UNIT 1091
 # File generated by Flopy version 3.3.6 on 07/16/2022 at 15:08:32.

 PROCESSING DRN OPTIONS
    DRN BOUNDARIES HAVE NAMES IN LAST COLUMN.
    FLOWS WILL BE SAVED TO BUDGET FILE SPECIFIED IN OUTPUT CONTROL

 OPENED gwf.drn.obs
 FILE TYPE:OBS   UNIT 1096   STATUS:OLD                 
 FORMAT:FORMATTED              ACCESS:SEQUENTIAL          
 ACTION:READ                

 END OF DRN OPTIONS

 PROCESSING DRN DIMENSIONS
    MAXBOUND =     150
 END OF DRN DIMENSIONS

 API   -- API PACKAGE, VERSION 8, 2/22/2014 INPUT READ FROM UNIT 1092
 # File generated by Flopy version 3.3.6 on 07/16/2022 at 15:08:32.

 PROCESSING API OPTIONS
 END OF API OPTIONS

 PROCESSING API DIMENSIONS
    MAXBOUND =     150
 END OF API DIMENSIONS

 CHD   -- CHD PACKAGE, VERSION 8, 2/22/2014 INPUT READ FROM UNIT 1087
 # File generated by Flopy version 3.3.6 on 07/16/2022 at 15:08:32.

 PROCESSING CHD OPTIONS
    CHD BOUNDARIES HAVE NAMES IN LAST COLUMN.

 OPENED gwf.chd.obs
 FILE TYPE:OBS   UNIT 1097   STATUS:OLD                 
 FORMAT:FORMATTED              ACCESS:SEQUENTIAL          
 ACTION:READ                

 END OF CHD OPTIONS

 PROCESSING CHD DIMENSIONS
    MAXBOUND =      30
 END OF CHD DIMENSIONS

 IC -- INITIAL CONDITIONS PACKAGE, VERSION 8, 3/28/2015 INPUT READ FROM UNIT 1085
 # File generated by Flopy version 3.3.6 on 07/16/2022 at 15:08:32.
 PROCESSING GRIDDATA

     INITIAL HEAD =   1.000000    
 END PROCESSING GRIDDATA
 PROCESSING GRIDDATA

                ICELLTYPE = 1

                        K =   1.000000    

                      K33 =   1.000000    
 K22 not provided.  Assuming K22 = K.
 END PROCESSING GRIDDATA

 STO -- STORAGE PACKAGE, VERSION 1, 5/19/2014 INPUT READ FROM UNIT 1089


 # File generated by Flopy version 3.3.6 on 07/16/2022 at 15:08:32.
 PROCESSING STORAGE OPTIONS
    CELL-BY-CELL FLOW INFORMATION WILL BE SAVED TO BINARY FILE WHENEVER ICBCFL IS NOT ZERO.
 END OF STORAGE OPTIONS
 PROCESSING GRIDDATA

                 ICONVERT = 1

         SPECIFIC STORAGE =  0.1000000E-04

           SPECIFIC YIELD =  0.2000000    
 END PROCESSING GRIDDATA
    BINARY GRID INFORMATION WILL BE WRITTEN TO:
      UNIT NUMBER: 1098
      FILE NAME: d:\Workspace\hugm0001\github\mf6api_test_cases\examples\redistribute_rch\model\gwf.dis.grb

 OPENED d:\Workspace\hugm0001\github\mf6api_test_cases\examples\redistribute_rch\model\gwf.dis.grb
 FILE TYPE:DATA(BINARY)   UNIT 1098   STATUS:REPLACE             
 FORMAT:UNFORMATTED            ACCESS:STREAM              
 ACTION:READWRITE           

      THE LAST TIME STEP WILL BE PRINTED
      THE LAST TIME STEP WILL BE PRINTED
 # File generated by Flopy version 3.3.6 on 07/16/2022 at 15:08:32.

 PROCESSING OC OPTIONS

    BUDGET INFORMATION WILL BE WRITTEN TO:
      UNIT NUMBER: 1099
      FILE NAME: gwf.cbb

 OPENED gwf.cbb
 FILE TYPE:DATA(BINARY)   UNIT 1099   STATUS:REPLACE             
 FORMAT:UNFORMATTED            ACCESS:STREAM              
 ACTION:READWRITE           

    HEAD INFORMATION WILL BE WRITTEN TO:
      UNIT NUMBER: 1100
      FILE NAME: gwf.hds

 OPENED gwf.hds
 FILE TYPE:DATA(BINARY)   UNIT 1100   STATUS:REPLACE             
 FORMAT:UNFORMATTED            ACCESS:STREAM              
 ACTION:READWRITE           

 END OF OC OPTIONS

The observation utility is active for "WEL-1"
 # File generated by Flopy version 3.3.6 on 07/16/2022 at 15:08:32.

Processing observation options:

Text output number of digits of precision set to:  9
The PRINT_INPUT option has been specified.


 OBSERVATIONS READ FROM FILE "gwf.wel.obs"
 ----------------------------------------------------------------------------------------------------------------------------------------------------------------------------------------------------------------------------
 NAME                                     TYPE                                       TIME         LOCATION DATA                              OUTPUT FILENAME                                                                 
 ----------------------------------------------------------------------------------------------------------------------------------------------------------------------------------------------------------------------------
 WEL                                      CONTINUOUS  WEL                            ALL TIMES    "  wel"                                    wel.csv                                                                         
 ----------------------------------------------------------------------------------------------------------------------------------------------------------------------------------------------------------------------------



The observation utility is active for "DRN-0"
 # File generated by Flopy version 3.3.6 on 07/16/2022 at 15:08:32.

Processing observation options:

Text output number of digits of precision set to:  9


The observation utility is active for "CHD_0"
 # File generated by Flopy version 3.3.6 on 07/16/2022 at 15:08:32.

Processing observation options:

Text output number of digits of precision set to:  9


start timestep kper="1" kstp="1" mode="normal"


 BEGIN READING OUTPUT CONTROL FOR STRESS PERIOD 1
      ALL TIME STEPS WILL BE SAVED
      ALL TIME STEPS WILL BE SAVED
      ALL TIME STEPS WILL BE PRINTED
      ALL TIME STEPS WILL BE PRINTED

 END READING OUTPUT CONTROL FOR STRESS PERIOD 1


 PROCESSING STORAGE PERIOD DATA
 END PROCESSING STORAGE PERIOD DATA


 STRESS PERIOD 1 IS STEADY-STATE


 REUSING WELS FROM LAST STRESS PERIOD
 UBDSV1 SAVING           STO-SS ON UNIT   1099 AT TIME STEP      1, STRESS PERIOD      1
 UBDSV1 SAVING           STO-SY ON UNIT   1099 AT TIME STEP      1, STRESS PERIOD      1
 UBDSV1 SAVING     FLOW-JA-FACE ON UNIT   1099 AT TIME STEP      1, STRESS PERIOD      1
 UBDSV06 SAVING       DATA-SPDIS IN MODEL GWF              PACKAGE NPF             CONNECTED TO MODEL GWF              PACKAGE NPF              ON UNIT   1099 AT TIME STEP      1, STRESS PERIOD      1
 UBDSV06 SAVING              WEL IN MODEL GWF              PACKAGE GWF             CONNECTED TO MODEL GWF              PACKAGE WEL-1            ON UNIT   1099 AT TIME STEP      1, STRESS PERIOD      1
 UBDSV06 SAVING              DRN IN MODEL GWF              PACKAGE GWF             CONNECTED TO MODEL GWF              PACKAGE DRN-0            ON UNIT   1099 AT TIME STEP      1, STRESS PERIOD      1
 UBDSV06 SAVING              API IN MODEL GWF              PACKAGE GWF             CONNECTED TO MODEL GWF              PACKAGE MAR              ON UNIT   1099 AT TIME STEP      1, STRESS PERIOD      1
 UBDSV06 SAVING              CHD IN MODEL GWF              PACKAGE GWF             CONNECTED TO MODEL GWF              PACKAGE CHD_0            ON UNIT   1099 AT TIME STEP      1, STRESS PERIOD      1

    CALCULATED INTERCELL FLOW FOR PERIOD 1 STEP 1
(1,1,1): (1,1,2) 1.969279E-09 (1,2,1) 0.00000
(1,1,2): (1,1,1) -1.969279E-09 (1,1,3) 1.851728E-09 (1,2,2) 1.423957E-10
(1,1,3): (1,1,2) -1.851728E-09 (1,1,4) 1.432006E-09 (1,2,3) 2.495788E-10
(1,1,4): (1,1,3) -1.432006E-09 (1,1,5) 8.738238E-10 (1,2,4) 2.901489E-10
(1,1,5): (1,1,4) -8.738238E-10 (1,1,6) 1.863508E-10 (1,2,5) 2.294915E-10
(1,1,6): (1,1,5) -1.863508E-10 (1,1,7) -5.909474E-10 (1,2,6) 9.264372E-11
(1,1,7): (1,1,6) 5.909474E-10 (1,1,8) -1.343662E-09 (1,2,7) -5.708222E-11
(1,1,8): (1,1,7) 1.343662E-09 (1,1,9) -1.965609E-09 (1,2,8) -1.537384E-10
(1,1,9): (1,1,8) 1.965609E-09 (1,1,10) -2.412969E-09 (1,2,9) -1.576063E-10
(1,1,10): (1,1,9) 2.412969E-09 (1,2,10) 0.00000
(1,2,1): (1,1,1) 0.00000 (1,2,2) 2.111674E-09 (1,3,1) 0.00000
(1,2,2): (1,1,2) -1.423957E-10 (1,2,1) -2.111674E-09 (1,2,3) 1.958911E-09 (1,3,2) -1.397872E-10
(1,2,3): (1,1,3) -2.495788E-10 (1,2,2) -1.958911E-09 (1,2,4) 1.472576E-09 (1,3,3) -3.328351E-10
(1,2,4): (1,1,4) -2.901489E-10 (1,2,3) -1.472576E-09 (1,2,5) 8.131663E-10 (1,3,4) -4.634080E-10
(1,2,5): (1,1,5) -2.294915E-10 (1,2,4) -8.131663E-10 (1,2,6) 4.950305E-11 (1,3,5) -5.454693E-10
(1,2,6): (1,1,6) -9.264372E-11 (1,2,5) -4.950305E-11 (1,2,7) -7.406733E-10 (1,3,6) -5.828680E-10
(1,2,7): (1,1,7) 5.708222E-11 (1,2,6) 7.406733E-10 (1,2,8) -1.440318E-09 (1,3,7) -5.647178E-10
(1,2,8): (1,1,8) 1.537384E-10 (1,2,7) 1.440318E-09 (1,2,9) -1.969477E-09 (1,3,8) -4.707874E-10
(1,2,9): (1,1,9) 1.576063E-10 (1,2,8) 1.969477E-09 (1,2,10) -2.255363E-09 (1,3,9) -2.785820E-10
(1,2,10): (1,1,10) 0.00000 (1,2,9) 2.255363E-09 (1,3,10) 0.00000
(1,3,1): (1,2,1) 0.00000 (1,3,2) 1.971887E-09 (1,4,1) 0.00000
(1,3,2): (1,2,2) 1.397872E-10 (1,3,1) -1.971887E-09 (1,3,3) 1.765863E-09 (1,4,2) -2.125172E-10
(1,3,3): (1,2,3) 3.328351E-10 (1,3,2) -1.765863E-09 (1,3,4) 1.342003E-09 (1,4,3) -4.889437E-10
(1,3,4): (1,2,4) 4.634080E-10 (1,3,3) -1.342003E-09 (1,3,5) 7.311050E-10 (1,4,4) -7.341214E-10
(1,3,5): (1,2,5) 5.454693E-10 (1,3,4) -7.311050E-10 (1,3,6) 1.210441E-11 (1,4,5) -9.027701E-10
(1,3,6): (1,2,6) 5.828680E-10 (1,3,5) -1.210441E-11 (1,3,7) -7.225231E-10 (1,4,6) -9.617557E-10
(1,3,7): (1,2,7) 5.647178E-10 (1,3,6) 7.225231E-10 (1,3,8) -1.346387E-09 (1,4,7) -8.890916E-10
(1,3,8): (1,2,8) 4.707874E-10 (1,3,7) 1.346387E-09 (1,3,9) -1.777271E-09 (1,4,8) -6.941400E-10
(1,3,9): (1,2,9) 2.785820E-10 (1,3,8) 1.777271E-09 (1,3,10) -1.976781E-09 (1,4,9) -3.873084E-10
(1,3,10): (1,2,10) 0.00000 (1,3,9) 1.976781E-09 (1,4,10) 0.00000
(1,4,1): (1,3,1) 0.00000 (1,4,2) 1.759370E-09 (1,5,1) 0.00000
(1,4,2): (1,3,2) 2.125172E-10 (1,4,1) -1.759370E-09 (1,4,3) 1.489436E-09 (1,5,2) -3.778268E-10
(1,4,3): (1,3,3) 4.889437E-10 (1,4,2) -1.489436E-09 (1,4,4) 1.096826E-09 (1,5,3) -7.066243E-10
(1,4,4): (1,3,4) 7.341214E-10 (1,4,3) -1.096826E-09 (1,4,5) 5.624563E-10 (1,5,4) -9.875307E-10
(1,4,5): (1,3,5) 9.027701E-10 (1,4,4) -5.624563E-10 (1,4,6) -4.688118E-11 (1,5,5) -1.177985E-09
(1,4,6): (1,3,6) 9.617557E-10 (1,4,5) 4.688118E-11 (1,4,7) -6.498590E-10 (1,5,6) -1.233888E-09
(1,4,7): (1,3,7) 8.890916E-10 (1,4,6) 6.498590E-10 (1,4,8) -1.151436E-09 (1,5,7) -1.124562E-09
(1,4,8): (1,3,8) 6.941400E-10 (1,4,7) 1.151436E-09 (1,4,9) -1.470440E-09 (1,5,8) -8.563363E-10
(1,4,9): (1,3,9) 3.873084E-10 (1,4,8) 1.470440E-09 (1,4,10) -1.589472E-09 (1,5,9) -4.633629E-10
(1,4,10): (1,3,10) 0.00000 (1,4,9) 1.589472E-09 (1,5,10) 0.00000
(1,5,1): (1,4,1) 0.00000 (1,5,2) 1.381543E-09 (1,6,1) 0.00000
(1,5,2): (1,4,2) 3.778268E-10 (1,5,1) -1.381543E-09 (1,5,3) 1.160639E-09 (1,6,2) -4.515746E-10
(1,5,3): (1,4,3) 7.066243E-10 (1,5,2) -1.160639E-09 (1,5,4) 8.159192E-10 (1,6,3) -8.528119E-10
(1,5,4): (1,4,4) 9.875307E-10 (1,5,3) -8.159192E-10 (1,5,5) 3.720022E-10 (1,6,4) -1.179128E-09
(1,5,5): (1,4,5) 1.177985E-09 (1,5,4) -3.720022E-10 (1,5,6) -1.027841E-10 (1,6,5) -1.378750E-09
(1,5,6): (1,4,6) 1.233888E-09 (1,5,5) 1.027841E-10 (1,5,7) -5.405332E-10 (1,6,6) -1.410231E-09
(1,5,7): (1,4,7) 1.124562E-09 (1,5,6) 5.405332E-10 (1,5,8) -8.832102E-10 (1,6,7) -1.256679E-09
(1,5,8): (1,4,8) 8.563363E-10 (1,5,7) 8.832102E-10 (1,5,9) -1.077466E-09 (1,6,8) -9.350537E-10
(1,5,9): (1,4,9) 4.633629E-10 (1,5,8) 1.077466E-09 (1,5,10) -1.126109E-09 (1,6,9) -4.938437E-10
(1,5,10): (1,4,10) 0.00000 (1,5,9) 1.126109E-09 (1,6,10) 0.00000
(1,6,1): (1,5,1) 0.00000 (1,6,2) 9.299687E-10 (1,7,1) 0.00000
(1,6,2): (1,5,2) 4.515746E-10 (1,6,1) -9.299687E-10 (1,6,3) 7.594015E-10 (1,7,2) -4.890916E-10
(1,6,3): (1,5,3) 8.528119E-10 (1,6,2) -7.594015E-10 (1,6,4) 4.896036E-10 (1,7,3) -9.351190E-10
(1,6,4): (1,5,4) 1.179128E-09 (1,6,3) -4.896036E-10 (1,6,5) 1.723795E-10 (1,7,4) -1.277376E-09
(1,6,5): (1,5,5) 1.378750E-09 (1,6,4) -1.723795E-10 (1,6,6) -1.342653E-10 (1,7,5) -1.462380E-09
(1,6,6): (1,5,6) 1.410231E-09 (1,6,5) 1.342653E-10 (1,6,7) -3.869804E-10 (1,7,6) -1.461198E-09
(1,6,7): (1,5,7) 1.256679E-09 (1,6,6) 3.869804E-10 (1,6,8) -5.615853E-10 (1,7,7) -1.274088E-09
(1,6,8): (1,5,8) 9.350537E-10 (1,6,7) 5.615853E-10 (1,6,9) -6.362565E-10 (1,7,8) -9.306056E-10
(1,6,9): (1,5,9) 4.938437E-10 (1,6,8) 6.362565E-10 (1,6,10) -6.322657E-10 (1,7,9) -4.847268E-10
(1,6,10): (1,5,10) 0.00000 (1,6,9) 6.322657E-10 (1,7,10) 0.00000
(1,7,1): (1,6,1) 0.00000 (1,7,2) 4.408771E-10 (1,8,1) 0.00000
(1,7,2): (1,6,2) 4.890916E-10 (1,7,1) -4.408771E-10 (1,7,3) 3.133741E-10 (1,8,2) -4.975254E-10
(1,7,3): (1,6,3) 9.351190E-10 (1,7,2) -3.133741E-10 (1,7,4) 1.473463E-10 (1,8,3) -9.414886E-10
(1,7,4): (1,6,4) 1.277376E-09 (1,7,3) -1.473463E-10 (1,7,5) -1.262443E-11 (1,8,4) -1.263933E-09
(1,7,5): (1,6,5) 1.462380E-09 (1,7,4) 1.262443E-11 (1,7,6) -1.330830E-10 (1,8,5) -1.420076E-09
(1,7,6): (1,6,6) 1.461198E-09 (1,7,5) 1.330830E-10 (1,7,7) -1.998707E-10 (1,8,6) -1.394859E-09
(1,7,7): (1,6,7) 1.274088E-09 (1,7,6) 1.998707E-10 (1,7,8) -2.181026E-10 (1,8,7) -1.200310E-09
(1,7,8): (1,6,8) 9.306056E-10 (1,7,7) 2.181026E-10 (1,7,9) -1.903777E-10 (1,8,8) -8.711683E-10
(1,7,9): (1,6,9) 4.847268E-10 (1,7,8) 1.903777E-10 (1,7,10) -1.475389E-10 (1,8,9) -4.562663E-10
(1,7,10): (1,6,10) 0.00000 (1,7,9) 1.475389E-10 (1,8,10) 0.00000
(1,8,1): (1,7,1) 0.00000 (1,8,2) -5.664833E-11 (1,9,1) 0.00000
(1,8,2): (1,7,2) 4.975254E-10 (1,8,1) 5.664833E-11 (1,8,3) -1.305891E-10 (1,9,2) -4.690034E-10
(1,8,3): (1,7,3) 9.414886E-10 (1,8,2) 1.305891E-10 (1,8,4) -1.750985E-10 (1,9,3) -8.735919E-10
(1,8,4): (1,7,4) 1.263933E-09 (1,8,3) 1.750985E-10 (1,8,5) -1.687669E-10 (1,9,4) -1.156970E-09
(1,8,5): (1,7,5) 1.420076E-09 (1,8,4) 1.687669E-10 (1,8,6) -1.078663E-10 (1,9,5) -1.286512E-09
(1,8,6): (1,7,6) 1.394859E-09 (1,8,5) 1.078663E-10 (1,8,7) -5.321963E-12 (1,9,6) -1.256253E-09
(1,8,7): (1,7,7) 1.200310E-09 (1,8,6) 5.321963E-12 (1,8,8) 1.110394E-10 (1,9,7) -1.081493E-09
(1,8,8): (1,7,8) 8.711683E-10 (1,8,7) -1.110394E-10 (1,8,9) 2.245244E-10 (1,9,8) -7.925131E-10
(1,8,9): (1,7,9) 4.562663E-10 (1,8,8) -2.245244E-10 (1,8,10) 3.087273E-10 (1,9,9) -4.245130E-10
(1,8,10): (1,7,10) 0.00000 (1,8,9) -3.087273E-10 (1,9,10) 0.00000
(1,9,1): (1,8,1) 0.00000 (1,9,2) -5.256517E-10 (1,10,1) 0.00000
(1,9,2): (1,8,2) 4.690034E-10 (1,9,1) 5.256517E-10 (1,9,3) -5.351776E-10 (1,10,2) -4.102241E-10
(1,9,3): (1,8,3) 8.735919E-10 (1,9,2) 5.351776E-10 (1,9,4) -4.584767E-10 (1,10,3) -7.573564E-10
(1,9,4): (1,8,4) 1.156970E-09 (1,9,3) 4.584767E-10 (1,9,5) -2.983089E-10 (1,10,4) -9.991076E-10
(1,9,5): (1,8,5) 1.286512E-09 (1,9,4) 2.983089E-10 (1,9,6) -7.760707E-11 (1,10,5) -1.112214E-09
(1,9,6): (1,8,6) 1.256253E-09 (1,9,5) 7.760707E-11 (1,9,7) 1.694383E-10 (1,10,6) -1.092977E-09
(1,9,7): (1,8,7) 1.081493E-09 (1,9,6) -1.694383E-10 (1,9,8) 4.000190E-10 (1,10,7) -9.516133E-10
(1,9,8): (1,8,8) 7.925131E-10 (1,9,7) -4.000190E-10 (1,9,9) 5.925244E-10 (1,10,8) -7.070378E-10
(1,9,9): (1,8,9) 4.245130E-10 (1,9,8) -5.925244E-10 (1,9,10) 7.332403E-10 (1,10,9) -3.807922E-10
(1,9,10): (1,8,10) 0.00000 (1,9,9) -7.332403E-10 (1,10,10) 0.00000
(1,10,1): (1,9,1) 0.00000 (1,10,2) -9.358758E-10 (1,11,1) 0.00000
(1,10,2): (1,9,2) 4.102241E-10 (1,10,1) 9.358758E-10 (1,10,3) -8.823099E-10 (1,11,2) -3.374870E-10
(1,10,3): (1,9,3) 7.573564E-10 (1,10,2) 8.823099E-10 (1,10,4) -7.002280E-10 (1,11,3) -6.235921E-10
(1,10,4): (1,9,4) 9.991076E-10 (1,10,3) 7.002280E-10 (1,10,5) -4.114149E-10 (1,11,4) -8.263617E-10
(1,10,5): (1,9,5) 1.112214E-09 (1,10,4) 4.114149E-10 (1,10,6) -5.837075E-11 (1,11,5) -9.272680E-10
(1,10,6): (1,9,6) 1.092977E-09 (1,10,5) 5.837075E-11 (1,10,7) 3.108024E-10 (1,11,6) -9.206831E-10
(1,10,7): (1,9,7) 9.516133E-10 (1,10,6) -3.108024E-10 (1,10,8) 6.445944E-10 (1,11,7) -8.074196E-10
(1,10,8): (1,9,8) 7.070378E-10 (1,10,7) -6.445944E-10 (1,10,9) 9.187701E-10 (1,11,8) -5.950853E-10
(1,10,9): (1,9,9) 3.807922E-10 (1,10,8) -9.187701E-10 (1,10,10) 1.114033E-09 (1,11,9) -3.014185E-10
(1,10,10): (1,9,10) 0.00000 (1,10,9) -1.114033E-09 (1,11,10) 0.00000
(1,11,1): (1,10,1) 0.00000 (1,11,2) -1.273363E-09 (1,12,1) 0.00000
(1,11,2): (1,10,2) 3.374870E-10 (1,11,1) 1.273363E-09 (1,11,3) -1.168415E-09 (1,12,2) -2.630418E-10
(1,11,3): (1,10,3) 6.235921E-10 (1,11,2) 1.168415E-09 (1,11,4) -9.029976E-10 (1,12,3) -4.877053E-10
(1,11,4): (1,10,4) 8.263617E-10 (1,11,3) 9.029976E-10 (1,11,5) -5.123212E-10 (1,12,4) -6.469347E-10
(1,11,5): (1,10,5) 9.272680E-10 (1,11,4) 5.123212E-10 (1,11,6) -5.178584E-11 (1,12,5) -7.252648E-10
(1,11,6): (1,10,6) 9.206831E-10 (1,11,5) 5.178584E-11 (1,11,7) 4.240658E-10 (1,12,6) -7.194243E-10
(1,11,7): (1,10,7) 8.074196E-10 (1,11,6) -4.240658E-10 (1,11,8) 8.569287E-10 (1,12,7) -6.253213E-10
(1,11,8): (1,10,8) 5.950853E-10 (1,11,7) -8.569287E-10 (1,11,9) 1.212437E-09 (1,12,8) -4.467311E-10
(1,11,9): (1,10,9) 3.014185E-10 (1,11,8) -1.212437E-09 (1,11,10) 1.415451E-09 (1,12,9) -2.067517E-10
(1,11,10): (1,10,10) 0.00000 (1,11,9) -1.415451E-09 (1,12,10) 0.00000
(1,12,1): (1,11,1) 0.00000 (1,12,2) -1.536405E-09 (1,13,1) 0.00000
(1,12,2): (1,11,2) 2.630418E-10 (1,12,1) 1.536405E-09 (1,12,3) -1.393079E-09 (1,13,2) -1.887725E-10
(1,12,3): (1,11,3) 4.877053E-10 (1,12,2) 1.393079E-09 (1,12,4) -1.062227E-09 (1,13,3) -3.458678E-10
(1,12,4): (1,11,4) 6.469347E-10 (1,12,3) 1.062227E-09 (1,12,5) -5.906513E-10 (1,13,4) -4.486710E-10
(1,12,5): (1,11,5) 7.252648E-10 (1,12,4) 5.906513E-10 (1,12,6) -4.594533E-11 (1,13,5) -4.874266E-10
(1,12,6): (1,11,6) 7.194243E-10 (1,12,5) 4.594533E-11 (1,12,7) 5.181689E-10 (1,13,6) -4.706318E-10
(1,12,7): (1,11,7) 6.253213E-10 (1,12,6) -5.181689E-10 (1,12,8) 1.035519E-09 (1,13,7) -4.023094E-10
(1,12,8): (1,11,8) 4.467311E-10 (1,12,7) -1.035519E-09 (1,12,9) 1.452416E-09 (1,13,8) -2.914175E-10
(1,12,9): (1,11,9) 2.067517E-10 (1,12,8) -1.452416E-09 (1,12,10) 1.622203E-09 (1,13,9) -1.672701E-10
(1,12,10): (1,11,10) 0.00000 (1,12,9) -1.622203E-09 (1,13,10) 0.00000
(1,13,1): (1,12,1) 0.00000 (1,13,2) -1.725177E-09 (1,14,1) 0.00000
(1,13,2): (1,12,2) 1.887725E-10 (1,13,1) 1.725177E-09 (1,13,3) -1.550174E-09 (1,14,2) -1.110795E-10
(1,13,3): (1,12,3) 3.458678E-10 (1,13,2) 1.550174E-09 (1,13,4) -1.165030E-09 (1,14,3) -1.885207E-10
(1,13,4): (1,12,4) 4.486710E-10 (1,13,3) 1.165030E-09 (1,13,5) -6.294068E-10 (1,14,4) -2.279016E-10
(1,13,5): (1,12,5) 4.874266E-10 (1,13,4) 6.294068E-10 (1,13,6) -2.915052E-11 (1,14,5) -2.310148E-10
(1,13,6): (1,12,6) 4.706318E-10 (1,13,5) 2.915052E-11 (1,13,7) 5.864912E-10 (1,14,6) -1.960327E-10
(1,13,7): (1,12,7) 4.023094E-10 (1,13,6) -5.864912E-10 (1,13,8) 1.146411E-09 (1,14,7) -1.272624E-10
(1,13,8): (1,12,8) 2.914175E-10 (1,13,7) -1.146411E-09 (1,13,9) 1.576564E-09 (1,14,8) -4.986828E-11
(1,13,9): (1,12,9) 1.672701E-10 (1,13,8) -1.576564E-09 (1,13,10) 1.789473E-09 (1,14,9) -3.296672E-11
(1,13,10): (1,12,10) 0.00000 (1,13,9) -1.789473E-09 (1,14,10) 0.00000
(1,14,1): (1,13,1) 0.00000 (1,14,2) -1.836257E-09 (1,15,1) 0.00000
(1,14,2): (1,13,2) 1.110795E-10 (1,14,1) 1.836257E-09 (1,14,3) -1.627615E-09 (1,15,2) -3.553637E-11
(1,14,3): (1,13,3) 1.885207E-10 (1,14,2) 1.627615E-09 (1,14,4) -1.204411E-09 (1,15,3) -1.627036E-11
(1,14,4): (1,13,4) 2.279016E-10 (1,14,3) 1.204411E-09 (1,14,5) -6.325201E-10 (1,15,4) 1.924026E-11
(1,14,5): (1,13,5) 2.310148E-10 (1,14,4) 6.325201E-10 (1,14,6) 5.831603E-12 (1,15,5) 4.125490E-11
(1,14,6): (1,13,6) 1.960327E-10 (1,14,5) -5.831603E-12 (1,14,7) 6.552616E-10 (1,15,6) 6.117489E-11
(1,14,7): (1,13,7) 1.272624E-10 (1,14,6) -6.552616E-10 (1,14,8) 1.223805E-09 (1,15,7) 9.516658E-11
(1,14,8): (1,13,8) 4.986828E-11 (1,14,7) -1.223805E-09 (1,14,9) 1.593465E-09 (1,15,8) 1.275642E-10
(1,14,9): (1,13,9) 3.296672E-11 (1,14,8) -1.593465E-09 (1,14,10) 1.822439E-09 (1,15,9) 1.105646E-10
(1,14,10): (1,13,10) 0.00000 (1,14,9) -1.822439E-09 (1,15,10) 0.00000
(1,15,1): (1,14,1) 0.00000 (1,15,2) -1.871793E-09
(1,15,2): (1,14,2) 3.553637E-11 (1,15,1) 1.871793E-09 (1,15,3) -1.608349E-09
(1,15,3): (1,14,3) 1.627036E-11 (1,15,2) 1.608349E-09 (1,15,4) -1.168901E-09
(1,15,4): (1,14,4) -1.924026E-11 (1,15,3) 1.168901E-09 (1,15,5) -6.105054E-10
(1,15,5): (1,14,5) -4.125490E-11 (1,15,4) 6.105054E-10 (1,15,6) 2.575160E-11
(1,15,6): (1,14,6) -6.117489E-11 (1,15,5) -2.575160E-11 (1,15,7) 6.892533E-10
(1,15,7): (1,14,7) -9.516658E-11 (1,15,6) -6.892533E-10 (1,15,8) 1.256203E-09
(1,15,8): (1,14,8) -1.275642E-10 (1,15,7) -1.256203E-09 (1,15,9) 1.576466E-09
(1,15,9): (1,14,9) -1.105646E-10 (1,15,8) -1.576466E-09 (1,15,10) 1.711875E-09
(1,15,10): (1,14,10) 0.00000 (1,15,9) -1.711875E-09

 DRN PACKAGE (DRN-0) FLOW RATES   PERIOD      1   STEP        1
 ----------------------------------------------------------------------------------------
   NUMBER   CELLID                    RATE       NAME                                    
 ----------------------------------------------------------------------------------------
     1      (1,1,1)               0.0000000      SURF                                    
     2      (1,1,2)               0.0000000      SURF                                    
     3      (1,1,3)               0.0000000      SURF                                    
     4      (1,1,4)               0.0000000      SURF                                    
     5      (1,1,5)               0.0000000      SURF                                    
     6      (1,1,6)               0.0000000      SURF                                    
     7      (1,1,7)               0.0000000      SURF                                    
     8      (1,1,8)               0.0000000      SURF                                    
     9      (1,1,9)               0.0000000      SURF                                    
     10     (1,1,10)              0.0000000      SURF                                    
     11     (1,2,1)               0.0000000      SURF                                    
     12     (1,2,2)               0.0000000      SURF                                    
     13     (1,2,3)               0.0000000      SURF                                    
     14     (1,2,4)               0.0000000      SURF                                    
     15     (1,2,5)               0.0000000      SURF                                    
     16     (1,2,6)               0.0000000      SURF                                    
     17     (1,2,7)               0.0000000      SURF                                    
     18     (1,2,8)               0.0000000      SURF                                    
     19     (1,2,9)               0.0000000      SURF                                    
     20     (1,2,10)              0.0000000      SURF                                    
     21     (1,3,1)               0.0000000      SURF                                    
     22     (1,3,2)               0.0000000      SURF                                    
     23     (1,3,3)               0.0000000      SURF                                    
     24     (1,3,4)               0.0000000      SURF                                    
     25     (1,3,5)               0.0000000      SURF                                    
     26     (1,3,6)               0.0000000      SURF                                    
     27     (1,3,7)               0.0000000      SURF                                    
     28     (1,3,8)               0.0000000      SURF                                    
     29     (1,3,9)               0.0000000      SURF                                    
     30     (1,3,10)              0.0000000      SURF                                    
     31     (1,4,1)               0.0000000      SURF                                    
     32     (1,4,2)               0.0000000      SURF                                    
     33     (1,4,3)               0.0000000      SURF                                    
     34     (1,4,4)               0.0000000      SURF                                    
     35     (1,4,5)               0.0000000      SURF                                    
     36     (1,4,6)               0.0000000      SURF                                    
     37     (1,4,7)               0.0000000      SURF                                    
     38     (1,4,8)               0.0000000      SURF                                    
     39     (1,4,9)               0.0000000      SURF                                    
     40     (1,4,10)              0.0000000      SURF                                    
     41     (1,5,1)               0.0000000      SURF                                    
     42     (1,5,2)               0.0000000      SURF                                    
     43     (1,5,3)               0.0000000      SURF                                    
     44     (1,5,4)               0.0000000      SURF                                    
     45     (1,5,5)               0.0000000      SURF                                    
     46     (1,5,6)               0.0000000      SURF                                    
     47     (1,5,7)               0.0000000      SURF                                    
     48     (1,5,8)               0.0000000      SURF                                    
     49     (1,5,9)               0.0000000      SURF                                    
     50     (1,5,10)              0.0000000      SURF                                    
     51     (1,6,1)               0.0000000      SURF                                    
     52     (1,6,2)               0.0000000      SURF                                    
     53     (1,6,3)               0.0000000      SURF                                    
     54     (1,6,4)               0.0000000      SURF                                    
     55     (1,6,5)               0.0000000      SURF                                    
     56     (1,6,6)               0.0000000      SURF                                    
     57     (1,6,7)               0.0000000      SURF                                    
     58     (1,6,8)               0.0000000      SURF                                    
     59     (1,6,9)               0.0000000      SURF                                    
     60     (1,6,10)              0.0000000      SURF                                    
     61     (1,7,1)               0.0000000      SURF                                    
     62     (1,7,2)               0.0000000      SURF                                    
     63     (1,7,3)               0.0000000      SURF                                    
     64     (1,7,4)               0.0000000      SURF                                    
     65     (1,7,5)               0.0000000      SURF                                    
     66     (1,7,6)               0.0000000      SURF                                    
     67     (1,7,7)               0.0000000      SURF                                    
     68     (1,7,8)               0.0000000      SURF                                    
     69     (1,7,9)               0.0000000      SURF                                    
     70     (1,7,10)              0.0000000      SURF                                    
     71     (1,8,1)               0.0000000      SURF                                    
     72     (1,8,2)               0.0000000      SURF                                    
     73     (1,8,3)               0.0000000      SURF                                    
     74     (1,8,4)               0.0000000      SURF                                    
     75     (1,8,5)               0.0000000      SURF                                    
     76     (1,8,6)               0.0000000      SURF                                    
     77     (1,8,7)               0.0000000      SURF                                    
     78     (1,8,8)               0.0000000      SURF                                    
     79     (1,8,9)               0.0000000      SURF                                    
     80     (1,8,10)              0.0000000      SURF                                    
     81     (1,9,1)               0.0000000      SURF                                    
     82     (1,9,2)               0.0000000      SURF                                    
     83     (1,9,3)               0.0000000      SURF                                    
     84     (1,9,4)               0.0000000      SURF                                    
     85     (1,9,5)               0.0000000      SURF                                    
     86     (1,9,6)               0.0000000      SURF                                    
     87     (1,9,7)               0.0000000      SURF                                    
     88     (1,9,8)               0.0000000      SURF                                    
     89     (1,9,9)               0.0000000      SURF                                    
     90     (1,9,10)              0.0000000      SURF                                    
     91     (1,10,1)              0.0000000      SURF                                    
     92     (1,10,2)              0.0000000      SURF                                    
     93     (1,10,3)              0.0000000      SURF                                    
     94     (1,10,4)              0.0000000      SURF                                    
     95     (1,10,5)              0.0000000      SURF                                    
     96     (1,10,6)              0.0000000      SURF                                    
     97     (1,10,7)              0.0000000      SURF                                    
     98     (1,10,8)              0.0000000      SURF                                    
     99     (1,10,9)              0.0000000      SURF                                    
    100     (1,10,10)             0.0000000      SURF                                    
    101     (1,11,1)              0.0000000      SURF                                    
    102     (1,11,2)              0.0000000      SURF                                    
    103     (1,11,3)              0.0000000      SURF                                    
    104     (1,11,4)              0.0000000      SURF                                    
    105     (1,11,5)              0.0000000      SURF                                    
    106     (1,11,6)              0.0000000      SURF                                    
    107     (1,11,7)              0.0000000      SURF                                    
    108     (1,11,8)              0.0000000      SURF                                    
    109     (1,11,9)              0.0000000      SURF                                    
    110     (1,11,10)             0.0000000      SURF                                    
    111     (1,12,1)              0.0000000      SURF                                    
    112     (1,12,2)              0.0000000      SURF                                    
    113     (1,12,3)              0.0000000      SURF                                    
    114     (1,12,4)              0.0000000      SURF                                    
    115     (1,12,5)              0.0000000      SURF                                    
    116     (1,12,6)              0.0000000      SURF                                    
    117     (1,12,7)              0.0000000      SURF                                    
    118     (1,12,8)              0.0000000      SURF                                    
    119     (1,12,9)              0.0000000      SURF                                    
    120     (1,12,10)             0.0000000      SURF                                    
    121     (1,13,1)              0.0000000      SURF                                    
    122     (1,13,2)              0.0000000      SURF                                    
    123     (1,13,3)              0.0000000      SURF                                    
    124     (1,13,4)              0.0000000      SURF                                    
    125     (1,13,5)              0.0000000      SURF                                    
    126     (1,13,6)              0.0000000      SURF                                    
    127     (1,13,7)              0.0000000      SURF                                    
    128     (1,13,8)              0.0000000      SURF                                    
    129     (1,13,9)              0.0000000      SURF                                    
    130     (1,13,10)             0.0000000      SURF                                    
    131     (1,14,1)              0.0000000      SURF                                    
    132     (1,14,2)              0.0000000      SURF                                    
    133     (1,14,3)              0.0000000      SURF                                    
    134     (1,14,4)              0.0000000      SURF                                    
    135     (1,14,5)              0.0000000      SURF                                    
    136     (1,14,6)              0.0000000      SURF                                    
    137     (1,14,7)              0.0000000      SURF                                    
    138     (1,14,8)              0.0000000      SURF                                    
    139     (1,14,9)              0.0000000      SURF                                    
    140     (1,14,10)             0.0000000      SURF                                    
    141     (1,15,1)              0.0000000      SURF                                    
    142     (1,15,2)              0.0000000      SURF                                    
    143     (1,15,3)              0.0000000      SURF                                    
    144     (1,15,4)              0.0000000      SURF                                    
    145     (1,15,5)              0.0000000      SURF                                    
    146     (1,15,6)              0.0000000      SURF                                    
    147     (1,15,7)              0.0000000      SURF                                    
    148     (1,15,8)              0.0000000      SURF                                    
    149     (1,15,9)              0.0000000      SURF                                    
    150     (1,15,10)             0.0000000      SURF                                    
 ----------------------------------------------------------------------------------------




 API PACKAGE (MAR) FLOW RATES   PERIOD      1   STEP        1
 -----------------------------------------------
   NUMBER   CELLID                    RATE      
 -----------------------------------------------
     1      (1,6,5)               0.0000000     
     2      (1,6,6)               0.0000000     
     3      (1,6,7)               0.0000000     
     4      (1,10,5)              0.0000000     
     5      (1,10,6)              0.0000000     
     6      (1,10,7)              0.0000000     
 -----------------------------------------------




 CHD PACKAGE (CHD_0) FLOW RATES   PERIOD      1   STEP        1
 ----------------------------------------------------------------------------------------
   NUMBER   CELLID                    RATE       NAME                                    
 ----------------------------------------------------------------------------------------
     1      (1,1,1)              -1.96927867E-09 CHD                                     
     2      (1,1,10)             -2.41296901E-09 CHD                                     
     3      (1,2,1)              -2.11167442E-09 CHD                                     
     4      (1,2,10)             -2.25536274E-09 CHD                                     
     5      (1,3,1)              -1.97188723E-09 CHD                                     
     6      (1,3,10)             -1.97678070E-09 CHD                                     
     7      (1,4,1)              -1.75937001E-09 CHD                                     
     8      (1,4,10)             -1.58947230E-09 CHD                                     
     9      (1,5,1)              -1.38154321E-09 CHD                                     
     10     (1,5,10)             -1.12610941E-09 CHD                                     
     11     (1,6,1)              -9.29968652E-10 CHD                                     
     12     (1,6,10)             -6.32265711E-10 CHD                                     
     13     (1,7,1)              -4.40877071E-10 CHD                                     
     14     (1,7,10)             -1.47538928E-10 CHD                                     
     15     (1,8,1)               5.66483290E-11 CHD                                     
     16     (1,8,10)              3.08727328E-10 CHD                                     
     17     (1,9,1)               5.25651749E-10 CHD                                     
     18     (1,9,10)              7.33240349E-10 CHD                                     
     19     (1,10,1)              9.35875807E-10 CHD                                     
     20     (1,10,10)             1.11403255E-09 CHD                                     
     21     (1,11,1)              1.27336276E-09 CHD                                     
     22     (1,11,10)             1.41545101E-09 CHD                                     
     23     (1,12,1)              1.53640456E-09 CHD                                     
     24     (1,12,10)             1.62220269E-09 CHD                                     
     25     (1,13,1)              1.72517704E-09 CHD                                     
     26     (1,13,10)             1.78947276E-09 CHD                                     
     27     (1,14,1)              1.83625654E-09 CHD                                     
     28     (1,14,10)             1.82243948E-09 CHD                                     
     29     (1,15,1)              1.87179291E-09 CHD                                     
     30     (1,15,10)             1.71187488E-09 CHD                                     
 ----------------------------------------------------------------------------------------



1
  HEAD IN LAYER   1 AT END OF TIME STEP   1 IN STRESS PERIOD    1
  ---------------------------------------------------------------------------

            1           2           3           4           5           6           7           8           9          10
 ........................................................................................................................
   1    0.000      1.9693E-10  3.8210E-10  5.2530E-10  6.1268E-10  6.3132E-10  5.7222E-10  4.3786E-10  2.4130E-10   0.000    
   2    0.000      2.1117E-10  4.0706E-10  5.5432E-10  6.3563E-10  6.4058E-10  5.6652E-10  4.2248E-10  2.2554E-10   0.000    
   3    0.000      1.9719E-10  3.7377E-10  5.0798E-10  5.8109E-10  5.8230E-10  5.1004E-10  3.7541E-10  1.9768E-10   0.000    
   4    0.000      1.7594E-10  3.2488E-10  4.3456E-10  4.9081E-10  4.8612E-10  4.2113E-10  3.0599E-10  1.5895E-10   0.000    
   5    0.000      1.3815E-10  2.5422E-10  3.3581E-10  3.7301E-10  3.6273E-10  3.0868E-10  2.2036E-10  1.1261E-10   0.000    
   6    0.000      9.2997E-11  1.6894E-10  2.1790E-10  2.3514E-10  2.2171E-10  1.8301E-10  1.2685E-10  6.3227E-11   0.000    
   7    0.000      4.4088E-11  7.5425E-11  9.0160E-11  8.8897E-11  7.5589E-11  5.5602E-11  3.3792E-11  1.4754E-11   0.000    
   8    0.000     -5.6648E-12 -1.8724E-11 -3.6234E-11 -5.3110E-11 -6.3897E-11 -6.4429E-11 -5.3325E-11 -3.0873E-11   0.000    
   9    0.000     -5.2565E-11 -1.0608E-10 -1.5193E-10 -1.8176E-10 -1.8952E-10 -1.7258E-10 -1.3258E-10 -7.3324E-11   0.000    
  10    0.000     -9.3588E-11 -1.8182E-10 -2.5184E-10 -2.9298E-10 -2.9882E-10 -2.6774E-10 -2.0328E-10 -1.1140E-10   0.000    
  11    0.000     -1.2734E-10 -2.4418E-10 -3.3448E-10 -3.8571E-10 -3.9089E-10 -3.4848E-10 -2.6279E-10 -1.4155E-10   0.000    
  12    0.000     -1.5364E-10 -2.9295E-10 -3.9917E-10 -4.5824E-10 -4.6283E-10 -4.1101E-10 -3.0746E-10 -1.6222E-10   0.000    
  13    0.000     -1.7252E-10 -3.2753E-10 -4.4404E-10 -5.0698E-10 -5.0989E-10 -4.5124E-10 -3.3660E-10 -1.7895E-10   0.000    
  14    0.000     -1.8363E-10 -3.4639E-10 -4.6683E-10 -5.3008E-10 -5.2950E-10 -4.6397E-10 -3.4159E-10 -1.8224E-10   0.000    
  15    0.000     -1.8718E-10 -3.4801E-10 -4.6490E-10 -5.2595E-10 -5.2338E-10 -4.5445E-10 -3.2883E-10 -1.7119E-10   0.000    

 HEAD WILL BE SAVED ON UNIT 1100 AT END OF TIME STEP    1, STRESS PERIOD    1


  VOLUME BUDGET FOR ENTIRE MODEL AT END OF TIME STEP    1, STRESS PERIOD   1
  ---------------------------------------------------------------------------------------------------

     CUMULATIVE VOLUME      L**3       RATES FOR THIS TIME STEP      L**3/T          PACKAGE NAME    
     ------------------                 ------------------------                     ----------------

           IN:                                      IN:
           ---                                      ---
              STO-SS =           0.0000                STO-SS =           0.0000     STORAGE                          
              STO-SY =           0.0000                STO-SY =           0.0000     STORAGE                          
                 WEL =           0.0000                   WEL =           0.0000     WEL-1                            
                 DRN =           0.0000                   DRN =           0.0000     DRN-0                            
                 API =           0.0000                   API =           0.0000     MAR                              
                 CHD =       2.0279E-08                   CHD =       2.0279E-08     CHD_0                            

            TOTAL IN =       2.0279E-08              TOTAL IN =       2.0279E-08

          OUT:                                     OUT:
          ----                                     ----
              STO-SS =           0.0000                STO-SS =           0.0000     STORAGE                          
              STO-SY =           0.0000                STO-SY =           0.0000     STORAGE                          
                 WEL =           0.0000                   WEL =           0.0000     WEL-1                            
                 DRN =           0.0000                   DRN =           0.0000     DRN-0                            
                 API =           0.0000                   API =           0.0000     MAR                              
                 CHD =       2.0705E-08                   CHD =       2.0705E-08     CHD_0                            

           TOTAL OUT =       2.0705E-08             TOTAL OUT =       2.0705E-08

            IN - OUT =      -4.2649E-10              IN - OUT =      -4.2649E-10

 PERCENT DISCREPANCY =          -2.08     PERCENT DISCREPANCY =          -2.08




         TIME SUMMARY AT END OF TIME STEP    1 IN STRESS PERIOD    1
                    SECONDS     MINUTES      HOURS       DAYS        YEARS
                    -----------------------------------------------------------
   TIME STEP LENGTH  86400.      1440.0      24.000      1.0000     2.73785E-03
 STRESS PERIOD TIME  86400.      1440.0      24.000      1.0000     2.73785E-03
         TOTAL TIME  86400.      1440.0      24.000      1.0000     2.73785E-03


end timestep


start timestep kper="2" kstp="1" mode="normal"


 END OF FILE DETECTED IN OUTPUT CONTROL.
 CURRENT OUTPUT CONTROL SETTINGS WILL BE 
 REPEATED UNTIL THE END OF THE SIMULATION.

 OUTPUT CONTROL FOR STRESS PERIOD 2 IS REPEATED USING SETTINGS FROM A PREVIOUS STRESS PERIOD.


 PROCESSING STORAGE PERIOD DATA
 END PROCESSING STORAGE PERIOD DATA


 STRESS PERIOD 2 IS TRANSIENT


 REUSING DRNS FROM LAST STRESS PERIOD
 UBDSV1 SAVING           STO-SS ON UNIT   1099 AT TIME STEP      1, STRESS PERIOD      2
 UBDSV1 SAVING           STO-SY ON UNIT   1099 AT TIME STEP      1, STRESS PERIOD      2
 UBDSV1 SAVING     FLOW-JA-FACE ON UNIT   1099 AT TIME STEP      1, STRESS PERIOD      2
 UBDSV06 SAVING       DATA-SPDIS IN MODEL GWF              PACKAGE NPF             CONNECTED TO MODEL GWF              PACKAGE NPF              ON UNIT   1099 AT TIME STEP      1, STRESS PERIOD      2
 UBDSV06 SAVING              WEL IN MODEL GWF              PACKAGE GWF             CONNECTED TO MODEL GWF              PACKAGE WEL-1            ON UNIT   1099 AT TIME STEP      1, STRESS PERIOD      2
 UBDSV06 SAVING              DRN IN MODEL GWF              PACKAGE GWF             CONNECTED TO MODEL GWF              PACKAGE DRN-0            ON UNIT   1099 AT TIME STEP      1, STRESS PERIOD      2
 UBDSV06 SAVING              API IN MODEL GWF              PACKAGE GWF             CONNECTED TO MODEL GWF              PACKAGE MAR              ON UNIT   1099 AT TIME STEP      1, STRESS PERIOD      2
 UBDSV06 SAVING              CHD IN MODEL GWF              PACKAGE GWF             CONNECTED TO MODEL GWF              PACKAGE CHD_0            ON UNIT   1099 AT TIME STEP      1, STRESS PERIOD      2

    CALCULATED INTERCELL FLOW FOR PERIOD 2 STEP 1
(1,1,1): (1,1,2) 1.876641E-09 (1,2,1) 1.345818E-12
(1,1,2): (1,1,1) -1.876641E-09 (1,1,3) 1.816057E-09 (1,2,2) 8.483142E-11
(1,1,3): (1,1,2) -1.816057E-09 (1,1,4) 1.275522E-09 (1,2,3) -1.483722E-10
(1,1,4): (1,1,3) -1.275522E-09 (1,1,5) 1.015921E-10 (1,2,4) -2.646763E-09
(1,1,5): (1,1,4) -1.015921E-10 (1,1,6) -1.806986E-09 (1,2,5) -1.736439E-08
(1,1,6): (1,1,5) 1.806986E-09 (1,1,7) 1.386750E-09 (1,2,6) -6.235349E-08
(1,1,7): (1,1,6) -1.386750E-09 (1,1,8) -5.780389E-10 (1,2,7) -1.762083E-08
(1,1,8): (1,1,7) 5.780389E-10 (1,1,9) -1.800507E-09 (1,2,8) -3.043214E-09
(1,1,9): (1,1,8) 1.800507E-09 (1,1,10) -2.254592E-09 (1,2,9) -5.083059E-10
(1,1,10): (1,1,9) 2.254592E-09 (1,2,10) -4.765146E-11
(1,2,1): (1,1,1) -1.345818E-12 (1,2,2) 1.960126E-09 (1,3,1) -5.362966E-11
(1,2,2): (1,1,2) -8.483142E-11 (1,2,1) -1.960126E-09 (1,2,3) 1.582854E-09 (1,3,2) -6.652491E-10
(1,2,3): (1,1,3) 1.483722E-10 (1,2,2) -1.582854E-09 (1,2,4) -1.222869E-09 (1,3,3) -5.994960E-09
(1,2,4): (1,1,4) 2.646763E-09 (1,2,3) 1.222869E-09 (1,2,5) -1.461603E-08 (1,3,4) -5.184197E-08
(1,2,5): (1,1,5) 1.736439E-08 (1,2,4) 1.461603E-08 (1,2,6) -4.679608E-08 (1,3,5) -3.565108E-07
(1,2,6): (1,1,6) 6.235349E-08 (1,2,5) 4.679608E-08 (1,2,7) 4.611941E-08 (1,3,6) -1.463976E-06
(1,2,7): (1,1,7) 1.762083E-08 (1,2,6) -4.611941E-08 (1,2,8) 1.399957E-08 (1,3,7) -3.565378E-07
(1,2,8): (1,1,8) 3.043214E-09 (1,2,7) -1.399957E-08 (1,2,9) 7.344009E-10 (1,3,8) -5.186259E-08
(1,2,9): (1,1,9) 5.083059E-10 (1,2,8) -7.344009E-10 (1,2,10) -1.793937E-09 (1,3,9) -5.959474E-09
(1,2,10): (1,1,10) 4.765146E-11 (1,2,9) 1.793937E-09 (1,3,10) -5.883815E-10
(1,3,1): (1,2,1) 5.362966E-11 (1,3,2) 1.348507E-09 (1,4,1) -5.701225E-10
(1,3,2): (1,2,2) 6.652491E-10 (1,3,1) -1.348507E-09 (1,3,3) -3.746857E-09 (1,4,2) -7.211233E-09
(1,3,3): (1,2,3) 5.994960E-09 (1,3,2) 3.746857E-09 (1,3,4) -4.706988E-08 (1,4,3) -8.462333E-08
(1,3,4): (1,2,4) 5.184197E-08 (1,3,3) 4.706988E-08 (1,3,5) -3.192848E-07 (1,4,4) -8.703009E-07
(1,3,5): (1,2,5) 3.565108E-07 (1,3,4) 3.192848E-07 (1,3,6) -1.154262E-06 (1,4,5) -7.015730E-06
(1,3,6): (1,2,6) 1.463976E-06 (1,3,5) 1.154262E-06 (1,3,7) 1.153558E-06 (1,4,6) -3.436303E-05
(1,3,7): (1,2,7) 3.565378E-07 (1,3,6) -1.153558E-06 (1,3,8) 3.186747E-07 (1,4,7) -7.015715E-06
(1,3,8): (1,2,8) 5.186259E-08 (1,3,7) -3.186747E-07 (1,3,9) 4.663752E-08 (1,4,8) -8.702602E-07
(1,3,9): (1,2,9) 5.959474E-09 (1,3,8) -4.663752E-08 (1,3,10) 3.577155E-09 (1,4,9) -8.455292E-08
(1,3,10): (1,2,10) 5.883815E-10 (1,3,9) -3.577155E-09 (1,4,10) -7.531264E-09
(1,4,1): (1,3,1) 5.701225E-10 (1,4,2) -5.292604E-09 (1,5,1) -5.853876E-09
(1,4,2): (1,3,2) 7.211233E-09 (1,4,1) 5.292604E-09 (1,4,3) -8.115895E-08 (1,5,2) -8.303069E-08
(1,4,3): (1,3,3) 8.462333E-08 (1,4,2) 8.115895E-08 (1,4,4) -8.327474E-07 (1,5,3) -1.138516E-06
(1,4,4): (1,3,4) 8.703009E-07 (1,4,3) 8.327474E-07 (1,4,5) -6.464714E-06 (1,5,4) -1.372905E-05
(1,4,5): (1,3,5) 7.015730E-06 (1,4,4) 6.464714E-06 (1,4,6) -2.850156E-05 (1,5,5) -1.328398E-04
(1,4,6): (1,3,6) 3.436303E-05 (1,4,5) 2.850156E-05 (1,4,7) 2.850087E-05 (1,5,6) -8.095420E-04
(1,4,7): (1,3,7) 7.015715E-06 (1,4,6) -2.850087E-05 (1,4,8) 6.464130E-06 (1,5,7) -1.328398E-04
(1,4,8): (1,3,8) 8.702602E-07 (1,4,7) -6.464130E-06 (1,4,9) 8.323448E-07 (1,5,8) -1.372894E-05
(1,4,9): (1,3,9) 8.455292E-08 (1,4,8) -8.323448E-07 (1,4,10) 8.059881E-08 (1,5,9) -1.138616E-06
(1,4,10): (1,3,10) 7.531264E-09 (1,4,9) -8.059881E-08 (1,5,10) -8.815305E-08
(1,5,1): (1,4,1) 5.853876E-09 (1,5,2) -8.246942E-08 (1,6,1) -5.109650E-08
(1,5,2): (1,4,2) 8.303069E-08 (1,5,1) 8.246942E-08 (1,5,3) -1.136644E-06 (1,6,2) -8.344267E-07
(1,5,3): (1,4,3) 1.138516E-06 (1,5,2) 1.136644E-06 (1,5,4) -1.342328E-05 (1,6,3) -1.342494E-05
(1,5,4): (1,4,4) 1.372905E-05 (1,5,3) 1.342328E-05 (1,5,5) -1.255755E-04 (1,6,4) -1.947662E-04
(1,5,5): (1,4,5) 1.328398E-04 (1,5,4) 1.255755E-04 (1,5,6) -7.052030E-04 (1,6,5) -2.359177E-03
(1,5,6): (1,4,6) 8.095420E-04 (1,5,5) 7.052030E-04 (1,5,7) 7.052023E-04 (1,6,6) -1.913705E-02
(1,5,7): (1,4,7) 1.328398E-04 (1,5,6) -7.052023E-04 (1,5,8) 1.255750E-04 (1,6,7) -2.359177E-03
(1,5,8): (1,4,8) 1.372894E-05 (1,5,7) -1.255750E-04 (1,5,9) 1.342266E-05 (1,6,8) -1.947661E-04
(1,5,9): (1,4,9) 1.138616E-06 (1,5,8) -1.342266E-05 (1,5,10) 1.131061E-06 (1,6,9) -1.342726E-05
(1,5,10): (1,4,10) 8.815305E-08 (1,5,9) -1.131061E-06 (1,6,10) -8.822556E-07
(1,6,1): (1,5,1) 5.109650E-08 (1,6,2) -8.657996E-07 (1,7,1) -3.354507E-07
(1,6,2): (1,5,2) 8.344267E-07 (1,6,1) 8.657996E-07 (1,6,3) -1.372716E-05 (1,7,2) -6.466487E-06
(1,6,3): (1,5,3) 1.342494E-05 (1,6,2) 1.372716E-05 (1,6,4) -1.947645E-04 (1,7,3) -1.255768E-04
(1,6,4): (1,5,4) 1.947662E-04 (1,6,3) 1.947645E-04 (1,6,5) -2.289985E-03 (1,7,4) -2.289986E-03
(1,6,5): (1,5,5) 2.359177E-03 (1,6,4) 2.289985E-03 (1,6,6) -1.748280E-02 (1,7,5) -3.717952E-02
(1,6,6): (1,5,6) 1.913705E-02 (1,6,5) 1.748280E-02 (1,6,7) 1.748280E-02 (1,7,6) -0.453955
(1,6,7): (1,5,7) 2.359177E-03 (1,6,6) -1.748280E-02 (1,6,8) 2.289984E-03 (1,7,7) -3.717952E-02
(1,6,8): (1,5,8) 1.947661E-04 (1,6,7) -2.289984E-03 (1,6,9) 1.947615E-04 (1,7,8) -2.289986E-03
(1,6,9): (1,5,9) 1.342726E-05 (1,6,8) -1.947615E-04 (1,6,10) 1.367606E-05 (1,7,9) -1.255918E-04
(1,6,10): (1,5,10) 8.822556E-07 (1,6,9) -1.367606E-05 (1,7,10) -6.785301E-06
(1,7,1): (1,6,1) 3.354507E-07 (1,7,2) -6.996836E-06 (1,8,1) -1.201141E-06
(1,7,2): (1,6,2) 6.466487E-06 (1,7,1) 6.996836E-06 (1,7,3) -1.328375E-04 (1,8,2) -2.850391E-05
(1,7,3): (1,6,3) 1.255768E-04 (1,7,2) 1.328375E-04 (1,7,4) -2.359175E-03 (1,8,3) -7.052039E-04
(1,7,4): (1,6,4) 2.289986E-03 (1,7,3) 2.359175E-03 (1,7,5) -3.717952E-02 (1,8,4) -1.748280E-02
(1,7,5): (1,6,5) 3.717952E-02 (1,7,4) 3.717952E-02 (1,7,6) -0.434177 (1,8,5) -0.434177
(1,7,6): (1,6,6) 0.453955 (1,7,5) 0.434177 (1,7,7) 0.434177 (1,8,6) -10.8076
(1,7,7): (1,6,7) 3.717952E-02 (1,7,6) -0.434177 (1,7,8) 3.717952E-02 (1,8,7) -0.434177
(1,7,8): (1,6,8) 2.289986E-03 (1,7,7) -3.717952E-02 (1,7,9) 2.359158E-03 (1,8,8) -1.748280E-02
(1,7,9): (1,6,9) 1.255918E-04 (1,7,8) -2.359158E-03 (1,7,10) 1.324825E-04 (1,8,9) -7.052502E-04
(1,7,10): (1,6,10) 6.785301E-06 (1,7,9) -1.324825E-04 (1,8,10) -2.965580E-05
(1,8,1): (1,7,1) 1.201141E-06 (1,8,2) -3.429961E-05 (1,9,1) 1.201095E-06
(1,8,2): (1,7,2) 2.850391E-05 (1,8,1) 3.429961E-05 (1,8,3) -8.095382E-04 (1,9,2) 2.850295E-05
(1,8,3): (1,7,3) 7.052039E-04 (1,8,2) 8.095382E-04 (1,8,4) -1.913705E-02 (1,9,3) 7.052021E-04
(1,8,4): (1,7,4) 1.748280E-02 (1,8,3) 1.913705E-02 (1,8,5) -0.453955 (1,9,4) 1.748280E-02
(1,8,5): (1,7,5) 0.434177 (1,8,4) 0.453955 (1,8,6) -10.8076 (1,9,5) 0.434177
(1,8,6): (1,7,6) 10.8076 (1,8,5) 10.8076 (1,8,7) 10.8076 (1,9,6) 10.8076
(1,8,7): (1,7,7) 0.434177 (1,8,6) -10.8076 (1,8,8) 0.453955 (1,9,7) 0.434177
(1,8,8): (1,7,8) 1.748280E-02 (1,8,7) -0.453955 (1,8,9) 1.913698E-02 (1,9,8) 1.748280E-02
(1,8,9): (1,7,9) 7.052502E-04 (1,8,8) -1.913698E-02 (1,8,10) 8.080776E-04 (1,9,9) 7.052493E-04
(1,8,10): (1,7,10) 2.965580E-05 (1,8,9) -8.080776E-04 (1,9,10) 2.965576E-05
(1,9,1): (1,8,1) -1.201095E-06 (1,9,2) -6.997749E-06 (1,10,1) 3.354083E-07
(1,9,2): (1,8,2) -2.850295E-05 (1,9,1) 6.997749E-06 (1,9,3) -1.328384E-04 (1,10,2) 6.465593E-06
(1,9,3): (1,8,3) -7.052021E-04 (1,9,2) 1.328384E-04 (1,9,4) -2.359176E-03 (1,10,3) 1.255752E-04
(1,9,4): (1,8,4) -1.748280E-02 (1,9,3) 2.359176E-03 (1,9,5) -3.717952E-02 (1,10,4) 2.289984E-03
(1,9,5): (1,8,5) -0.434177 (1,9,4) 3.717952E-02 (1,9,6) -0.434177 (1,10,5) 3.717952E-02
(1,9,6): (1,8,6) -10.8076 (1,9,5) 0.434177 (1,9,7) 0.434177 (1,10,6) 0.453955
(1,9,7): (1,8,7) -0.434177 (1,9,6) -0.434177 (1,9,8) 3.717952E-02 (1,10,7) 3.717952E-02
(1,9,8): (1,8,8) -1.748280E-02 (1,9,7) -3.717952E-02 (1,9,9) 2.359158E-03 (1,10,8) 2.289985E-03
(1,9,9): (1,8,9) -7.052493E-04 (1,9,8) -2.359158E-03 (1,9,10) 1.324834E-04 (1,10,9) 1.255909E-04
(1,9,10): (1,8,10) -2.965576E-05 (1,9,9) -1.324834E-04 (1,10,10) 6.785260E-06
(1,10,1): (1,9,1) -3.354083E-07 (1,10,2) -8.675648E-07 (1,11,1) 5.105930E-08
(1,10,2): (1,9,2) -6.465593E-06 (1,10,1) 8.675648E-07 (1,10,3) -1.372878E-05 (1,11,2) 8.336428E-07
(1,10,3): (1,9,3) -1.255752E-04 (1,10,2) 1.372878E-05 (1,10,4) -1.947657E-04 (1,11,3) 1.342348E-05
(1,10,4): (1,9,4) -2.289984E-03 (1,10,3) 1.947657E-04 (1,10,5) -2.289985E-03 (1,11,4) 1.947642E-04
(1,10,5): (1,9,5) -3.717952E-02 (1,10,4) 2.289985E-03 (1,10,6) -1.748280E-02 (1,11,5) 2.359175E-03
(1,10,6): (1,9,6) -0.453955 (1,10,5) 1.748280E-02 (1,10,7) 1.748280E-02 (1,11,6) 1.913705E-02
(1,10,7): (1,9,7) -3.717952E-02 (1,10,6) -1.748280E-02 (1,10,8) 2.289985E-03 (1,11,7) 2.359175E-03
(1,10,8): (1,9,8) -2.289985E-03 (1,10,7) -2.289985E-03 (1,10,9) 1.947630E-04 (1,11,8) 1.947646E-04
(1,10,9): (1,9,9) -1.255909E-04 (1,10,8) -1.947630E-04 (1,10,10) 1.367772E-05 (1,11,9) 1.342647E-05
(1,10,10): (1,9,10) -6.785260E-06 (1,10,9) -1.367772E-05 (1,11,10) 8.822181E-07
(1,11,1): (1,10,1) -5.105930E-08 (1,11,2) -8.498124E-08 (1,12,1) 5.823840E-09
(1,11,2): (1,10,2) -8.336428E-07 (1,11,1) 8.498124E-08 (1,11,3) -1.138947E-06 (1,12,2) 8.239645E-08
(1,11,3): (1,10,3) -1.342348E-05 (1,11,2) 1.138947E-06 (1,11,4) -1.342498E-05 (1,12,3) 1.137331E-06
(1,11,4): (1,10,4) -1.947642E-04 (1,11,3) 1.342498E-05 (1,11,5) -1.255764E-04 (1,12,4) 1.372743E-05
(1,11,5): (1,10,5) -2.359175E-03 (1,11,4) 1.255764E-04 (1,11,6) -7.052029E-04 (1,12,5) 1.328380E-04
(1,11,6): (1,10,6) -1.913705E-02 (1,11,5) 7.052029E-04 (1,11,7) 7.052033E-04 (1,12,6) 8.095400E-04
(1,11,7): (1,10,7) -2.359175E-03 (1,11,6) -7.052033E-04 (1,11,8) 1.255767E-04 (1,12,7) 1.328381E-04
(1,11,8): (1,10,8) -1.947646E-04 (1,11,7) -1.255767E-04 (1,11,9) 1.342493E-05 (1,12,8) 1.372765E-05
(1,11,9): (1,10,9) -1.342647E-05 (1,11,8) -1.342493E-05 (1,11,10) 1.133470E-06 (1,12,9) 1.137946E-06
(1,11,10): (1,10,10) -8.822181E-07 (1,11,9) -1.133470E-06 (1,12,10) 8.812119E-08
(1,12,1): (1,11,1) -5.823840E-09 (1,12,2) -8.408629E-09 (1,13,1) 5.506624E-10
(1,12,2): (1,11,2) -8.239645E-08 (1,12,1) 8.408629E-09 (1,12,3) -8.401270E-08 (1,13,2) 6.804751E-09
(1,12,3): (1,11,3) -1.137331E-06 (1,12,2) 8.401270E-08 (1,12,4) -8.348875E-07 (1,13,3) 8.379164E-08
(1,12,4): (1,11,4) -1.372743E-05 (1,12,3) 8.348875E-07 (1,12,5) -6.465856E-06 (1,13,4) 8.691278E-07
(1,12,5): (1,11,5) -1.328380E-04 (1,12,4) 6.465856E-06 (1,12,6) -2.850155E-05 (1,13,5) 7.014353E-06
(1,12,6): (1,11,6) -8.095400E-04 (1,12,5) 2.850155E-05 (1,12,7) 2.850202E-05 (1,13,6) 3.436161E-05
(1,12,7): (1,11,7) -1.328381E-04 (1,12,6) -2.850202E-05 (1,12,8) 6.466296E-06 (1,13,7) 7.014439E-06
(1,12,8): (1,11,8) -1.372765E-05 (1,12,7) -6.466296E-06 (1,12,9) 8.352301E-07 (1,13,8) 8.692877E-07
(1,12,9): (1,11,9) -1.137946E-06 (1,12,8) -8.352301E-07 (1,12,10) 8.364432E-08 (1,13,9) 8.400852E-08
(1,12,10): (1,11,10) -8.812119E-08 (1,12,9) -8.364432E-08 (1,13,10) 7.505610E-09
(1,13,1): (1,12,1) -5.506624E-10 (1,13,2) -2.154540E-09 (1,14,1) 4.235842E-11
(1,13,2): (1,12,2) -6.804751E-09 (1,13,1) 2.154540E-09 (1,13,3) -7.025806E-09 (1,14,2) 4.215867E-10
(1,13,3): (1,12,3) -8.379164E-08 (1,13,2) 7.025806E-09 (1,13,4) -4.955132E-08 (1,14,3) 5.495715E-09
(1,13,4): (1,12,4) -8.691278E-07 (1,13,3) 4.955132E-08 (1,13,5) -3.206309E-07 (1,14,4) 5.117497E-08
(1,13,5): (1,12,5) -7.014353E-06 (1,13,4) 3.206309E-07 (1,13,6) -1.154300E-06 (1,14,5) 3.557554E-07
(1,13,6): (1,12,6) -3.436161E-05 (1,13,5) 1.154300E-06 (1,13,7) 1.154856E-06 (1,14,6) 1.463213E-06
(1,13,7): (1,12,7) -7.014439E-06 (1,13,6) -1.154856E-06 (1,13,8) 3.211442E-07 (1,14,7) 3.558548E-07
(1,13,8): (1,12,8) -8.692877E-07 (1,13,7) -3.211442E-07 (1,13,9) 4.995088E-08 (1,14,8) 5.134507E-08
(1,13,9): (1,12,9) -8.400852E-08 (1,13,8) -4.995088E-08 (1,13,10) 7.141419E-09 (1,14,9) 5.652734E-09
(1,13,10): (1,12,10) -7.505610E-09 (1,13,9) -7.141419E-09 (1,14,10) 5.737939E-10
(1,14,1): (1,13,1) -4.235842E-11 (1,14,2) -1.775312E-09 (1,15,1) 1.937264E-12
(1,14,2): (1,13,2) -4.215867E-10 (1,14,1) 1.775312E-09 (1,14,3) -1.951678E-09 (1,15,2) 1.985621E-12
(1,14,3): (1,13,3) -5.495715E-09 (1,14,2) 1.951678E-09 (1,14,4) -3.872068E-09 (1,15,3) 3.359324E-10
(1,14,4): (1,13,4) -5.117497E-08 (1,14,3) 3.872068E-09 (1,14,5) -1.605050E-08 (1,15,4) 2.893336E-09
(1,14,5): (1,13,5) -3.557554E-07 (1,14,4) 1.605050E-08 (1,14,6) -4.684266E-08 (1,15,5) 1.757323E-08
(1,14,6): (1,13,6) -1.463213E-06 (1,14,5) 4.684266E-08 (1,14,7) 4.749791E-08 (1,15,6) 6.245880E-08
(1,14,7): (1,13,7) -3.558548E-07 (1,14,6) -4.749791E-08 (1,14,8) 1.663451E-08 (1,15,7) 1.762663E-08
(1,14,8): (1,13,8) -5.134507E-08 (1,14,7) -1.663451E-08 (1,14,9) 4.258546E-09 (1,15,8) 2.997850E-09
(1,14,9): (1,13,9) -5.652734E-09 (1,14,8) -4.258546E-09 (1,14,10) 2.062479E-09 (1,15,9) 4.543014E-10
(1,14,10): (1,13,10) -5.737939E-10 (1,14,9) -2.062479E-09 (1,15,10) 4.466143E-11
(1,15,1): (1,14,1) -1.937264E-12 (1,15,2) -1.775263E-09
(1,15,2): (1,14,2) -1.985621E-12 (1,15,1) 1.775263E-09 (1,15,3) -1.617731E-09
(1,15,3): (1,14,3) -3.359324E-10 (1,15,2) 1.617731E-09 (1,15,4) -1.314665E-09
(1,15,4): (1,14,4) -2.893336E-09 (1,15,3) 1.314665E-09 (1,15,5) -1.370615E-09
(1,15,5): (1,14,5) -1.757323E-08 (1,15,4) 1.370615E-09 (1,15,6) -1.957083E-09
(1,15,6): (1,14,6) -6.245880E-08 (1,15,5) 1.957083E-09 (1,15,7) 2.665738E-09
(1,15,7): (1,14,7) -1.762663E-08 (1,15,6) -2.665738E-09 (1,15,8) 2.005732E-09
(1,15,8): (1,14,8) -2.997850E-09 (1,15,7) -2.005732E-09 (1,15,9) 1.714998E-09
(1,15,9): (1,14,9) -4.543014E-10 (1,15,8) -1.714998E-09 (1,15,10) 1.652839E-09
(1,15,10): (1,14,10) -4.466143E-11 (1,15,9) -1.652839E-09

 WEL PACKAGE (WEL-1) FLOW RATES   PERIOD      2   STEP        1
 ----------------------------------------------------------------------------------------
   NUMBER   CELLID                    RATE       NAME                                    
 ----------------------------------------------------------------------------------------
     1      (1,8,6)              -270.00000      WEL                                     
 ----------------------------------------------------------------------------------------




 DRN PACKAGE (DRN-0) FLOW RATES   PERIOD      2   STEP        1
 ----------------------------------------------------------------------------------------
   NUMBER   CELLID                    RATE       NAME                                    
 ----------------------------------------------------------------------------------------
     1      (1,1,1)               0.0000000      SURF                                    
     2      (1,1,2)               0.0000000      SURF                                    
     3      (1,1,3)               0.0000000      SURF                                    
     4      (1,1,4)               0.0000000      SURF                                    
     5      (1,1,5)               0.0000000      SURF                                    
     6      (1,1,6)               0.0000000      SURF                                    
     7      (1,1,7)               0.0000000      SURF                                    
     8      (1,1,8)               0.0000000      SURF                                    
     9      (1,1,9)               0.0000000      SURF                                    
     10     (1,1,10)              0.0000000      SURF                                    
     11     (1,2,1)               0.0000000      SURF                                    
     12     (1,2,2)               0.0000000      SURF                                    
     13     (1,2,3)               0.0000000      SURF                                    
     14     (1,2,4)               0.0000000      SURF                                    
     15     (1,2,5)               0.0000000      SURF                                    
     16     (1,2,6)               0.0000000      SURF                                    
     17     (1,2,7)               0.0000000      SURF                                    
     18     (1,2,8)               0.0000000      SURF                                    
     19     (1,2,9)               0.0000000      SURF                                    
     20     (1,2,10)              0.0000000      SURF                                    
     21     (1,3,1)               0.0000000      SURF                                    
     22     (1,3,2)               0.0000000      SURF                                    
     23     (1,3,3)               0.0000000      SURF                                    
     24     (1,3,4)               0.0000000      SURF                                    
     25     (1,3,5)               0.0000000      SURF                                    
     26     (1,3,6)               0.0000000      SURF                                    
     27     (1,3,7)               0.0000000      SURF                                    
     28     (1,3,8)               0.0000000      SURF                                    
     29     (1,3,9)               0.0000000      SURF                                    
     30     (1,3,10)              0.0000000      SURF                                    
     31     (1,4,1)               0.0000000      SURF                                    
     32     (1,4,2)               0.0000000      SURF                                    
     33     (1,4,3)               0.0000000      SURF                                    
     34     (1,4,4)               0.0000000      SURF                                    
     35     (1,4,5)               0.0000000      SURF                                    
     36     (1,4,6)               0.0000000      SURF                                    
     37     (1,4,7)               0.0000000      SURF                                    
     38     (1,4,8)               0.0000000      SURF                                    
     39     (1,4,9)               0.0000000      SURF                                    
     40     (1,4,10)              0.0000000      SURF                                    
     41     (1,5,1)               0.0000000      SURF                                    
     42     (1,5,2)               0.0000000      SURF                                    
     43     (1,5,3)               0.0000000      SURF                                    
     44     (1,5,4)               0.0000000      SURF                                    
     45     (1,5,5)               0.0000000      SURF                                    
     46     (1,5,6)               0.0000000      SURF                                    
     47     (1,5,7)               0.0000000      SURF                                    
     48     (1,5,8)               0.0000000      SURF                                    
     49     (1,5,9)               0.0000000      SURF                                    
     50     (1,5,10)              0.0000000      SURF                                    
     51     (1,6,1)               0.0000000      SURF                                    
     52     (1,6,2)               0.0000000      SURF                                    
     53     (1,6,3)               0.0000000      SURF                                    
     54     (1,6,4)               0.0000000      SURF                                    
     55     (1,6,5)               0.0000000      SURF                                    
     56     (1,6,6)               0.0000000      SURF                                    
     57     (1,6,7)               0.0000000      SURF                                    
     58     (1,6,8)               0.0000000      SURF                                    
     59     (1,6,9)               0.0000000      SURF                                    
     60     (1,6,10)              0.0000000      SURF                                    
     61     (1,7,1)               0.0000000      SURF                                    
     62     (1,7,2)               0.0000000      SURF                                    
     63     (1,7,3)               0.0000000      SURF                                    
     64     (1,7,4)               0.0000000      SURF                                    
     65     (1,7,5)               0.0000000      SURF                                    
     66     (1,7,6)               0.0000000      SURF                                    
     67     (1,7,7)               0.0000000      SURF                                    
     68     (1,7,8)               0.0000000      SURF                                    
     69     (1,7,9)               0.0000000      SURF                                    
     70     (1,7,10)              0.0000000      SURF                                    
     71     (1,8,1)               0.0000000      SURF                                    
     72     (1,8,2)               0.0000000      SURF                                    
     73     (1,8,3)               0.0000000      SURF                                    
     74     (1,8,4)               0.0000000      SURF                                    
     75     (1,8,5)               0.0000000      SURF                                    
     76     (1,8,6)               0.0000000      SURF                                    
     77     (1,8,7)               0.0000000      SURF                                    
     78     (1,8,8)               0.0000000      SURF                                    
     79     (1,8,9)               0.0000000      SURF                                    
     80     (1,8,10)              0.0000000      SURF                                    
     81     (1,9,1)               0.0000000      SURF                                    
     82     (1,9,2)               0.0000000      SURF                                    
     83     (1,9,3)               0.0000000      SURF                                    
     84     (1,9,4)               0.0000000      SURF                                    
     85     (1,9,5)               0.0000000      SURF                                    
     86     (1,9,6)               0.0000000      SURF                                    
     87     (1,9,7)               0.0000000      SURF                                    
     88     (1,9,8)               0.0000000      SURF                                    
     89     (1,9,9)               0.0000000      SURF                                    
     90     (1,9,10)              0.0000000      SURF                                    
     91     (1,10,1)              0.0000000      SURF                                    
     92     (1,10,2)              0.0000000      SURF                                    
     93     (1,10,3)              0.0000000      SURF                                    
     94     (1,10,4)              0.0000000      SURF                                    
     95     (1,10,5)              0.0000000      SURF                                    
     96     (1,10,6)              0.0000000      SURF                                    
     97     (1,10,7)              0.0000000      SURF                                    
     98     (1,10,8)              0.0000000      SURF                                    
     99     (1,10,9)              0.0000000      SURF                                    
    100     (1,10,10)             0.0000000      SURF                                    
    101     (1,11,1)              0.0000000      SURF                                    
    102     (1,11,2)              0.0000000      SURF                                    
    103     (1,11,3)              0.0000000      SURF                                    
    104     (1,11,4)              0.0000000      SURF                                    
    105     (1,11,5)              0.0000000      SURF                                    
    106     (1,11,6)              0.0000000      SURF                                    
    107     (1,11,7)              0.0000000      SURF                                    
    108     (1,11,8)              0.0000000      SURF                                    
    109     (1,11,9)              0.0000000      SURF                                    
    110     (1,11,10)             0.0000000      SURF                                    
    111     (1,12,1)              0.0000000      SURF                                    
    112     (1,12,2)              0.0000000      SURF                                    
    113     (1,12,3)              0.0000000      SURF                                    
    114     (1,12,4)              0.0000000      SURF                                    
    115     (1,12,5)              0.0000000      SURF                                    
    116     (1,12,6)              0.0000000      SURF                                    
    117     (1,12,7)              0.0000000      SURF                                    
    118     (1,12,8)              0.0000000      SURF                                    
    119     (1,12,9)              0.0000000      SURF                                    
    120     (1,12,10)             0.0000000      SURF                                    
    121     (1,13,1)              0.0000000      SURF                                    
    122     (1,13,2)              0.0000000      SURF                                    
    123     (1,13,3)              0.0000000      SURF                                    
    124     (1,13,4)              0.0000000      SURF                                    
    125     (1,13,5)              0.0000000      SURF                                    
    126     (1,13,6)              0.0000000      SURF                                    
    127     (1,13,7)              0.0000000      SURF                                    
    128     (1,13,8)              0.0000000      SURF                                    
    129     (1,13,9)              0.0000000      SURF                                    
    130     (1,13,10)             0.0000000      SURF                                    
    131     (1,14,1)              0.0000000      SURF                                    
    132     (1,14,2)              0.0000000      SURF                                    
    133     (1,14,3)              0.0000000      SURF                                    
    134     (1,14,4)              0.0000000      SURF                                    
    135     (1,14,5)              0.0000000      SURF                                    
    136     (1,14,6)              0.0000000      SURF                                    
    137     (1,14,7)              0.0000000      SURF                                    
    138     (1,14,8)              0.0000000      SURF                                    
    139     (1,14,9)              0.0000000      SURF                                    
    140     (1,14,10)             0.0000000      SURF                                    
    141     (1,15,1)              0.0000000      SURF                                    
    142     (1,15,2)              0.0000000      SURF                                    
    143     (1,15,3)              0.0000000      SURF                                    
    144     (1,15,4)              0.0000000      SURF                                    
    145     (1,15,5)              0.0000000      SURF                                    
    146     (1,15,6)              0.0000000      SURF                                    
    147     (1,15,7)              0.0000000      SURF                                    
    148     (1,15,8)              0.0000000      SURF                                    
    149     (1,15,9)              0.0000000      SURF                                    
    150     (1,15,10)             0.0000000      SURF                                    
 ----------------------------------------------------------------------------------------




 API PACKAGE (MAR) FLOW RATES   PERIOD      2   STEP        1
 -----------------------------------------------
   NUMBER   CELLID                    RATE      
 -----------------------------------------------
     1      (1,6,5)               0.0000000     
[...]
 ----------------------------------------------------------------------------------------
     1      (1,8,6)              -204.04413      WEL                                     
 ----------------------------------------------------------------------------------------




 DRN PACKAGE (DRN-0) FLOW RATES   PERIOD      2   STEP      100
 ----------------------------------------------------------------------------------------
   NUMBER   CELLID                    RATE       NAME                                    
 ----------------------------------------------------------------------------------------
     1      (1,1,1)               0.0000000      SURF                                    
     2      (1,1,2)               0.0000000      SURF                                    
     3      (1,1,3)               0.0000000      SURF                                    
     4      (1,1,4)               0.0000000      SURF                                    
     5      (1,1,5)               0.0000000      SURF                                    
     6      (1,1,6)               0.0000000      SURF                                    
     7      (1,1,7)               0.0000000      SURF                                    
     8      (1,1,8)               0.0000000      SURF                                    
     9      (1,1,9)               0.0000000      SURF                                    
     10     (1,1,10)              0.0000000      SURF                                    
     11     (1,2,1)               0.0000000      SURF                                    
     12     (1,2,2)               0.0000000      SURF                                    
     13     (1,2,3)               0.0000000      SURF                                    
     14     (1,2,4)               0.0000000      SURF                                    
     15     (1,2,5)               0.0000000      SURF                                    
     16     (1,2,6)               0.0000000      SURF                                    
     17     (1,2,7)               0.0000000      SURF                                    
     18     (1,2,8)               0.0000000      SURF                                    
     19     (1,2,9)               0.0000000      SURF                                    
     20     (1,2,10)              0.0000000      SURF                                    
     21     (1,3,1)               0.0000000      SURF                                    
     22     (1,3,2)               0.0000000      SURF                                    
     23     (1,3,3)               0.0000000      SURF                                    
     24     (1,3,4)               0.0000000      SURF                                    
     25     (1,3,5)               0.0000000      SURF                                    
     26     (1,3,6)               0.0000000      SURF                                    
     27     (1,3,7)               0.0000000      SURF                                    
     28     (1,3,8)               0.0000000      SURF                                    
     29     (1,3,9)               0.0000000      SURF                                    
     30     (1,3,10)              0.0000000      SURF                                    
     31     (1,4,1)               0.0000000      SURF                                    
     32     (1,4,2)               0.0000000      SURF                                    
     33     (1,4,3)               0.0000000      SURF                                    
     34     (1,4,4)               0.0000000      SURF                                    
     35     (1,4,5)               0.0000000      SURF                                    
     36     (1,4,6)               0.0000000      SURF                                    
     37     (1,4,7)               0.0000000      SURF                                    
     38     (1,4,8)               0.0000000      SURF                                    
     39     (1,4,9)               0.0000000      SURF                                    
     40     (1,4,10)              0.0000000      SURF                                    
     41     (1,5,1)               0.0000000      SURF                                    
     42     (1,5,2)               0.0000000      SURF                                    
     43     (1,5,3)               0.0000000      SURF                                    
     44     (1,5,4)               0.0000000      SURF                                    
     45     (1,5,5)               0.0000000      SURF                                    
     46     (1,5,6)               0.0000000      SURF                                    
     47     (1,5,7)               0.0000000      SURF                                    
     48     (1,5,8)               0.0000000      SURF                                    
     49     (1,5,9)               0.0000000      SURF                                    
     50     (1,5,10)              0.0000000      SURF                                    
     51     (1,6,1)               0.0000000      SURF                                    
     52     (1,6,2)               0.0000000      SURF                                    
     53     (1,6,3)               0.0000000      SURF                                    
     54     (1,6,4)               0.0000000      SURF                                    
     55     (1,6,5)              -1.85750085E-02 SURF                                    
     56     (1,6,6)               0.0000000      SURF                                    
     57     (1,6,7)              -3.13011697E-07 SURF                                    
     58     (1,6,8)               0.0000000      SURF                                    
     59     (1,6,9)               0.0000000      SURF                                    
     60     (1,6,10)              0.0000000      SURF                                    
     61     (1,7,1)               0.0000000      SURF                                    
     62     (1,7,2)               0.0000000      SURF                                    
     63     (1,7,3)               0.0000000      SURF                                    
     64     (1,7,4)               0.0000000      SURF                                    
     65     (1,7,5)               0.0000000      SURF                                    
     66     (1,7,6)               0.0000000      SURF                                    
     67     (1,7,7)               0.0000000      SURF                                    
     68     (1,7,8)               0.0000000      SURF                                    
     69     (1,7,9)               0.0000000      SURF                                    
     70     (1,7,10)              0.0000000      SURF                                    
     71     (1,8,1)               0.0000000      SURF                                    
     72     (1,8,2)               0.0000000      SURF                                    
     73     (1,8,3)               0.0000000      SURF                                    
     74     (1,8,4)               0.0000000      SURF                                    
     75     (1,8,5)               0.0000000      SURF                                    
     76     (1,8,6)               0.0000000      SURF                                    
     77     (1,8,7)               0.0000000      SURF                                    
     78     (1,8,8)               0.0000000      SURF                                    
     79     (1,8,9)               0.0000000      SURF                                    
     80     (1,8,10)              0.0000000      SURF                                    
     81     (1,9,1)               0.0000000      SURF                                    
     82     (1,9,2)               0.0000000      SURF                                    
     83     (1,9,3)               0.0000000      SURF                                    
     84     (1,9,4)               0.0000000      SURF                                    
     85     (1,9,5)               0.0000000      SURF                                    
     86     (1,9,6)               0.0000000      SURF                                    
     87     (1,9,7)               0.0000000      SURF                                    
     88     (1,9,8)               0.0000000      SURF                                    
     89     (1,9,9)               0.0000000      SURF                                    
     90     (1,9,10)              0.0000000      SURF                                    
     91     (1,10,1)              0.0000000      SURF                                    
     92     (1,10,2)              0.0000000      SURF                                    
     93     (1,10,3)              0.0000000      SURF                                    
     94     (1,10,4)              0.0000000      SURF                                    
     95     (1,10,5)              0.0000000      SURF                                    
     96     (1,10,6)              0.0000000      SURF                                    
     97     (1,10,7)              0.0000000      SURF                                    
     98     (1,10,8)              0.0000000      SURF                                    
     99     (1,10,9)              0.0000000      SURF                                    
    100     (1,10,10)             0.0000000      SURF                                    
    101     (1,11,1)              0.0000000      SURF                                    
    102     (1,11,2)              0.0000000      SURF                                    
    103     (1,11,3)              0.0000000      SURF                                    
    104     (1,11,4)              0.0000000      SURF                                    
    105     (1,11,5)              0.0000000      SURF                                    
    106     (1,11,6)              0.0000000      SURF                                    
    107     (1,11,7)              0.0000000      SURF                                    
    108     (1,11,8)              0.0000000      SURF                                    
    109     (1,11,9)              0.0000000      SURF                                    
    110     (1,11,10)             0.0000000      SURF                                    
    111     (1,12,1)              0.0000000      SURF                                    
    112     (1,12,2)              0.0000000      SURF                                    
    113     (1,12,3)              0.0000000      SURF                                    
    114     (1,12,4)              0.0000000      SURF                                    
    115     (1,12,5)              0.0000000      SURF                                    
    116     (1,12,6)              0.0000000      SURF                                    
    117     (1,12,7)              0.0000000      SURF                                    
    118     (1,12,8)              0.0000000      SURF                                    
    119     (1,12,9)              0.0000000      SURF                                    
    120     (1,12,10)             0.0000000      SURF                                    
    121     (1,13,1)              0.0000000      SURF                                    
    122     (1,13,2)              0.0000000      SURF                                    
    123     (1,13,3)              0.0000000      SURF                                    
    124     (1,13,4)              0.0000000      SURF                                    
    125     (1,13,5)              0.0000000      SURF                                    
    126     (1,13,6)              0.0000000      SURF                                    
    127     (1,13,7)              0.0000000      SURF                                    
    128     (1,13,8)              0.0000000      SURF                                    
    129     (1,13,9)              0.0000000      SURF                                    
    130     (1,13,10)             0.0000000      SURF                                    
    131     (1,14,1)              0.0000000      SURF                                    
    132     (1,14,2)              0.0000000      SURF                                    
    133     (1,14,3)              0.0000000      SURF                                    
    134     (1,14,4)              0.0000000      SURF                                    
    135     (1,14,5)              0.0000000      SURF                                    
    136     (1,14,6)              0.0000000      SURF                                    
    137     (1,14,7)              0.0000000      SURF                                    
    138     (1,14,8)              0.0000000      SURF                                    
    139     (1,14,9)              0.0000000      SURF                                    
    140     (1,14,10)             0.0000000      SURF                                    
    141     (1,15,1)              0.0000000      SURF                                    
    142     (1,15,2)              0.0000000      SURF                                    
    143     (1,15,3)              0.0000000      SURF                                    
    144     (1,15,4)              0.0000000      SURF                                    
    145     (1,15,5)              0.0000000      SURF                                    
    146     (1,15,6)              0.0000000      SURF                                    
    147     (1,15,7)              0.0000000      SURF                                    
    148     (1,15,8)              0.0000000      SURF                                    
    149     (1,15,9)              0.0000000      SURF                                    
    150     (1,15,10)             0.0000000      SURF                                    
 ----------------------------------------------------------------------------------------




 API PACKAGE (MAR) FLOW RATES   PERIOD      2   STEP      100
 -----------------------------------------------
   NUMBER   CELLID                    RATE      
 -----------------------------------------------
     1      (1,6,5)               35.937882     
     2      (1,6,6)               35.937882     
     3      (1,6,7)               35.937882     
     4      (1,10,5)              32.076828     
     5      (1,10,6)              32.076828     
     6      (1,10,7)              32.076828     
 -----------------------------------------------



1
  HEAD IN LAYER   1 AT END OF TIME STEP 100 IN STRESS PERIOD    2
  ---------------------------------------------------------------------------

            1           2           3           4           5           6           7           8           9          10
 ........................................................................................................................
   1   2.9432E-02  3.7940E-02  5.3654E-02  7.3054E-02  8.9797E-02  9.6766E-02  9.1405E-02  7.7015E-02  6.1502E-02  5.1911E-02
   2   3.5243E-02  4.6953E-02  6.9466E-02  9.8910E-02  0.1258      0.1367      0.1276      0.1035      7.8781E-02  6.4105E-02
   3   4.3235E-02  6.0888E-02  9.7263E-02  0.1499      0.2030      0.2233      0.2051      0.1552      0.1085      8.2693E-02
   4   4.5517E-02  6.9641E-02  0.1252      0.2200      0.3348      0.3713      0.3368      0.2252      0.1367      9.3554E-02
   5   3.0723E-02  5.4981E-02  0.1242      0.2827      0.5579      0.6043      0.5592      0.2859      0.1314      7.1914E-02
   6  -9.5986E-03 -5.7587E-03  3.2323E-02  0.2263       1.000      0.9296       1.000      0.2253      2.9329E-02 -1.1118E-02
   7  -6.5454E-02 -0.1133     -0.2314     -0.4759     -0.9793      -2.171     -0.9811     -0.4821     -0.2478     -0.1525    
   8  -9.4502E-02 -0.1747     -0.4016     -0.9999      -2.748      -9.254      -2.751      -1.009     -0.4251     -0.2322    
   9  -6.8526E-02 -0.1188     -0.2443     -0.5075      -1.048      -2.254      -1.050     -0.5141     -0.2614     -0.1596    
  10  -1.4805E-02 -1.4927E-02  1.0141E-02  0.1664      0.8395      0.7460      0.8389      0.1647      5.9346E-03 -2.2934E-02
  11   2.5049E-02  4.6165E-02  0.1064      0.2446      0.4855      0.5205      0.4864      0.2471      0.1123      6.0417E-02
  12   4.0371E-02  6.2622E-02  0.1135      0.1994      0.3024      0.3342      0.3041      0.2039      0.1237      8.4287E-02
  13   3.8906E-02  5.5531E-02  8.9633E-02  0.1386      0.1875      0.2061      0.1893      0.1433      9.9758E-02  7.5553E-02
  14   3.1636E-02  4.2732E-02  6.4041E-02  9.1827E-02  0.1170      0.1272      0.1186      9.5875E-02  7.2421E-02  5.8446E-02
  15   2.6242E-02  3.4292E-02  4.9176E-02  6.7557E-02  8.3397E-02  8.9945E-02  8.4784E-02  7.1030E-02  5.6191E-02  4.7007E-02

 HEAD WILL BE SAVED ON UNIT 1100 AT END OF TIME STEP  100, STRESS PERIOD    2


  VOLUME BUDGET FOR ENTIRE MODEL AT END OF TIME STEP  100, STRESS PERIOD   2
  ---------------------------------------------------------------------------------------------------

     CUMULATIVE VOLUME      L**3       RATES FOR THIS TIME STEP      L**3/T          PACKAGE NAME    
     ------------------                 ------------------------                     ----------------

           IN:                                      IN:
           ---                                      ---
              STO-SS =          26.2814                STO-SS =       6.9142E-03     STORAGE                          
              STO-SY =       64244.1398                STO-SY =          14.2856     STORAGE                          
                 WEL =           0.0000                   WEL =           0.0000     WEL-1                            
                 DRN =           0.0000                   DRN =           0.0000     DRN-0                            
                 API =      204608.6495                   API =         204.0441     MAR                              
                 CHD =       2.0279E-08                   CHD =           0.0000     CHD_0                            

            TOTAL IN =      268879.0706              TOTAL IN =         218.3366

          OUT:                                     OUT:
          ----                                     ----
              STO-SS =          22.8530                STO-SS =       7.2210E-03     STORAGE                          
              STO-SY =       44677.6162                STO-SY =          14.2667     STORAGE                          
                 WEL =      224177.4557                   WEL =         204.0441     WEL-1                            
                 DRN =           1.1458                   DRN =       1.8575E-02     DRN-0                            
                 API =           0.0000                   API =           0.0000     MAR                              
                 CHD =       2.0705E-08                   CHD =           0.0000     CHD_0                            

           TOTAL OUT =      268879.0706             TOTAL OUT =         218.3366

            IN - OUT =      -7.5880E-07              IN - OUT =       1.9539E-09

 PERCENT DISCREPANCY =          -0.00     PERCENT DISCREPANCY =           0.00




         TIME SUMMARY AT END OF TIME STEP  100 IN STRESS PERIOD    2
                    SECONDS     MINUTES      HOURS       DAYS        YEARS
                    -----------------------------------------------------------
   TIME STEP LENGTH 8.64000E+05  14400.      240.00      10.000     2.73785E-02
 STRESS PERIOD TIME 8.64000E+07 1.44000E+06  24000.      1000.0      2.7379    
         TOTAL TIME 8.64864E+07 1.44144E+06  24024.      1001.0      2.7406    


end timestep

