                                   MODFLOW 6
                U.S. GEOLOGICAL SURVEY MODULAR HYDROLOGIC MODEL
                          GROUNDWATER FLOW MODEL (GWF)
                   VERSION 6.4.0 release candidate 07/06/2022
                               ***DEVELOP MODE***

   MODFLOW 6 compiled Jul 06 2022 19:38:41 with Intel(R) Fortran Intel(R) 64
   Compiler Classic for applications running on Intel(R) 64, Version 2021.6.0
                             Build 20220226_000000

This software is preliminary or provisional and is subject to 
revision. It is being provided to meet the need for timely best 
science. The software has not received final approval by the U.S. 
Geological Survey (USGS). No warranty, expressed or implied, is made 
by the USGS or the U.S. Government as to the functionality of the 
software and related material nor shall the fact of release 
constitute any such warranty. The software is provided on the 
condition that neither the USGS nor the U.S. Government shall be held 
liable for any damages resulting from the authorized or unauthorized 
use of the software.


As a work of the United States Government, this USGS product is 
in the public domain within the United States. You can copy, 
modify, distribute, and perform the work, even for commercial 
purposes, all without asking permission. Additionally, USGS 
waives copyright and related rights in the work worldwide 
through CC0 1.0 Universal Public Domain Dedication 
(https://creativecommons.org/publicdomain/zero/1.0/).

The following GNU Lesser General Public License (LGPL) libraries
are used in this USGS product:

    SPARSKIT version 2.0
      ilut, luson, and qsplit 
      (https://www-users.cse.umn.edu/~saad/software/SPARSKIT/)

    RCM - Reverse Cuthill McKee Ordering
      (https://people.math.sc.edu/Burkardt/f_src/rcm/rcm.html)

    BLAS - Basic Linear Algebra Subprograms Level 1
      (https://people.math.sc.edu/Burkardt/f_src/blas1_d/blas1_d.html)

    SPARSEKIT - Sparse Matrix Utility Package
      amux, dperm, dvperm, rperm, and cperm
      (https://people.sc.fsu.edu/~jburkardt/f77_src/sparsekit/sparsekit.html)

The following BSD-3 License libraries are used in this USGS product:

    Modern Fortran DAG Library
      Copyright (c) 2018, Jacob Williams
      All rights reserved.
      (https://github.com/jacobwilliams/daglib)

MODFLOW 6 compiler options: /Isrc\libmf6core.a.p /Isrc /I..\src
/Isrc\libmf6_external.a.p /MTd /nologo /warn:general /warn:truncated_source
/stand:f08 /Zi /traceback /O2 /Zi /fpe:0 /heap-arrays:0 /traceback /fpp
/Qdiag-disable:7416 /Qdiag-disable:7025 /Qdiag-disable:5268
/Fdsrc\libmf6core.a.p\Utilities_compilerversion.F90.pdb
/module:src\libmf6core.a.p
/Fosrc/libmf6core.a.p/Utilities_compilerversion.F90.obj /c

System command used to initiate simulation:
d:\Workspace\hugm0001\anaconda\python.exe -m ipykernel_launcher --ip=127.0.0.1 --stdin=9023 --control=9021 --hb=9020 "--Session.signature_scheme=\"hmac-sha256\"" "--Session.key=b\"8cfd950c-0c61-4b1d-8223-58d81f209f12\"" --shell=9022 "--transport=\"tcp\"" --iopub=9024 --f=c:\Users\hugm0001\AppData\Roaming\jupyter\runtime\kernel-v2-8744vrWotwXCyYHw.json

MODFLOW was compiled using uniform precision.

Real Variables
  KIND: 8
  TINY (smallest non-zero value):    2.225074-308
  HUGE (largest value):    1.797693+308
  PRECISION: 15
  BIT SIZE: 64

Integer Variables
  KIND: 4
  HUGE (largest value): 2147483647
  BIT SIZE: 32

Long Integer Variables
  KIND: 8
  HUGE (largest value): 9223372036854775807
  BIT SIZE: 64

Logical Variables
  KIND: 4
  BIT SIZE: 32
 

 OPENED gwf.dis
 FILE TYPE:DIS6                   UNIT 1029   STATUS:OLD                 
 FORMAT:FORMATTED              ACCESS:SEQUENTIAL          
 ACTION:READ                


 OPENED gwf.ic
 FILE TYPE:IC6                    UNIT 1030   STATUS:OLD                 
 FORMAT:FORMATTED              ACCESS:SEQUENTIAL          
 ACTION:READ                


 OPENED gwf.npf
 FILE TYPE:NPF6                   UNIT 1031   STATUS:OLD                 
 FORMAT:FORMATTED              ACCESS:SEQUENTIAL          
 ACTION:READ                


 OPENED gwf.chd
 FILE TYPE:CHD6                   UNIT 1032   STATUS:OLD                 
 FORMAT:FORMATTED              ACCESS:SEQUENTIAL          
 ACTION:READ                


 OPENED gwf.oc
 FILE TYPE:OC6                    UNIT 1033   STATUS:OLD                 
 FORMAT:FORMATTED              ACCESS:SEQUENTIAL          
 ACTION:READ                


 OPENED gwf.sto
 FILE TYPE:STO6                   UNIT 1034   STATUS:OLD                 
 FORMAT:FORMATTED              ACCESS:SEQUENTIAL          
 ACTION:READ                


 OPENED gwf.wel
 FILE TYPE:WEL6                   UNIT 1035   STATUS:OLD                 
 FORMAT:FORMATTED              ACCESS:SEQUENTIAL          
 ACTION:READ                


 OPENED gwf.api
 FILE TYPE:API6                   UNIT 1036   STATUS:OLD                 
 FORMAT:FORMATTED              ACCESS:SEQUENTIAL          
 ACTION:READ                

 NAMEFILE OPTIONS:
    PACKAGE FLOWS WILL BE PRINTED FOR ALL MODEL PACKAGES
    FLOWS WILL BE SAVED TO BUDGET FILE SPECIFIED IN OUTPUT CONTROL
    NEWTON-RAPHSON method enabled for the model.

 DIS -- STRUCTURED GRID DISCRETIZATION PACKAGE, VERSION 2 : 3/27/2014 - INPUT READ FROM UNIT 1029


 # File generated by Flopy version 3.3.6 on 07/16/2022 at 09:59:49.
 PROCESSING DISCRETIZATION OPTIONS
 END OF DISCRETIZATION OPTIONS
 MODEL LENGTH UNIT IS UNDEFINED
 PROCESSING DISCRETIZATION DIMENSIONS
    NLAY =       1
    NROW =      15
    NCOL =      10
 END OF DISCRETIZATION DIMENSIONS
 PROCESSING GRIDDATA

                     DELR =   100.0000    

                     DELC =   100.0000    

 TOP ELEVATION OF LAYER 1 =   10.00000    

   MODEL LAYER BOTTOM EL. =  -10.00000    
 END PROCESSING GRIDDATA

 NPF -- NODE PROPERTY FLOW PACKAGE, VERSION 1, 3/30/2015 INPUT READ FROM UNIT 1031


 # File generated by Flopy version 3.3.6 on 07/16/2022 at 09:59:49.
 PROCESSING NPF OPTIONS
    CELL-BY-CELL FLOW INFORMATION WILL BE SAVED TO BINARY FILE WHENEVER ICBCFL IS NOT ZERO.
    SPECIFIC DISCHARGE WILL BE CALCULATED AT CELL CENTERS AND WRITTEN TO DATA-SPDIS IN BUDGET FILE WHEN REQUESTED.
 END OF NPF OPTIONS

 WEL   -- WEL PACKAGE, VERSION 8, 2/22/2014 INPUT READ FROM UNIT 1035
 # File generated by Flopy version 3.3.6 on 07/16/2022 at 09:59:49.

 PROCESSING WEL OPTIONS
    WEL BOUNDARIES HAVE NAMES IN LAST COLUMN.
    AUTOMATIC FLOW REDUCTION OF WELLS IMPLEMENTED.
    AUTOMATIC FLOW REDUCTION FRACTION (  0.1000000    ).

 OPENED hd1h_well_reduce.csv
 FILE TYPE:CSV   UNIT 1038   STATUS:REPLACE             
 FORMAT:FORMATTED              ACCESS:SEQUENTIAL          
 ACTION:READWRITE           

    AUTO FLOW REDUCE INFORMATION WILL BE SAVED TO FILE: hd1h_well_reduce.csv
    OPENED ON UNIT: 1038

 OPENED gwf.wel.obs
 FILE TYPE:OBS   UNIT 1039   STATUS:OLD                 
 FORMAT:FORMATTED              ACCESS:SEQUENTIAL          
 ACTION:READ                

 END OF WEL OPTIONS

 PROCESSING WEL DIMENSIONS
    MAXBOUND =       1
 END OF WEL DIMENSIONS

 API   -- API PACKAGE, VERSION 8, 2/22/2014 INPUT READ FROM UNIT 1036
 # File generated by Flopy version 3.3.6 on 07/16/2022 at 09:59:49.

 PROCESSING API OPTIONS
 END OF API OPTIONS

 PROCESSING API DIMENSIONS
    MAXBOUND =     150
 END OF API DIMENSIONS

 CHD   -- CHD PACKAGE, VERSION 8, 2/22/2014 INPUT READ FROM UNIT 1032
 # File generated by Flopy version 3.3.6 on 07/16/2022 at 09:59:49.

 PROCESSING CHD OPTIONS
    CHD BOUNDARIES HAVE NAMES IN LAST COLUMN.

 OPENED gwf.chd.obs
 FILE TYPE:OBS   UNIT 1040   STATUS:OLD                 
 FORMAT:FORMATTED              ACCESS:SEQUENTIAL          
 ACTION:READ                

 END OF CHD OPTIONS

 PROCESSING CHD DIMENSIONS
    MAXBOUND =      30
 END OF CHD DIMENSIONS

 IC -- INITIAL CONDITIONS PACKAGE, VERSION 8, 3/28/2015 INPUT READ FROM UNIT 1030
 # File generated by Flopy version 3.3.6 on 07/16/2022 at 09:59:49.
 PROCESSING GRIDDATA

     INITIAL HEAD =   10.00000    
 END PROCESSING GRIDDATA
 PROCESSING GRIDDATA

                ICELLTYPE = 1

                        K =   1.000000    

                      K33 =   1.000000    
 K22 not provided.  Assuming K22 = K.
 END PROCESSING GRIDDATA

 STO -- STORAGE PACKAGE, VERSION 1, 5/19/2014 INPUT READ FROM UNIT 1034


 # File generated by Flopy version 3.3.6 on 07/16/2022 at 09:59:49.
 PROCESSING STORAGE OPTIONS
    CELL-BY-CELL FLOW INFORMATION WILL BE SAVED TO BINARY FILE WHENEVER ICBCFL IS NOT ZERO.
 END OF STORAGE OPTIONS
 PROCESSING GRIDDATA

                 ICONVERT = 1

         SPECIFIC STORAGE =  0.1000000E-04

           SPECIFIC YIELD =  0.2000000    
 END PROCESSING GRIDDATA
    BINARY GRID INFORMATION WILL BE WRITTEN TO:
      UNIT NUMBER: 1041
      FILE NAME: d:\Workspace\hugm0001\github\mf6api_test_cases\examples\redistribute_rch\model\gwf.dis.grb

 OPENED d:\Workspace\hugm0001\github\mf6api_test_cases\examples\redistribute_rch\model\gwf.dis.grb
 FILE TYPE:DATA(BINARY)   UNIT 1041   STATUS:REPLACE             
 FORMAT:UNFORMATTED            ACCESS:STREAM              
 ACTION:READWRITE           

      THE LAST TIME STEP WILL BE PRINTED
      THE LAST TIME STEP WILL BE PRINTED
 # File generated by Flopy version 3.3.6 on 07/16/2022 at 09:59:49.

 PROCESSING OC OPTIONS

    BUDGET INFORMATION WILL BE WRITTEN TO:
      UNIT NUMBER: 1042
      FILE NAME: gwf.cbb

 OPENED gwf.cbb
 FILE TYPE:DATA(BINARY)   UNIT 1042   STATUS:REPLACE             
 FORMAT:UNFORMATTED            ACCESS:STREAM              
 ACTION:READWRITE           

    HEAD INFORMATION WILL BE WRITTEN TO:
      UNIT NUMBER: 1043
      FILE NAME: gwf.hds

 OPENED gwf.hds
 FILE TYPE:DATA(BINARY)   UNIT 1043   STATUS:REPLACE             
 FORMAT:UNFORMATTED            ACCESS:STREAM              
 ACTION:READWRITE           

 END OF OC OPTIONS

The observation utility is active for "WEL-1"
 # File generated by Flopy version 3.3.6 on 07/16/2022 at 09:59:49.

Processing observation options:

Text output number of digits of precision set to:  9
The PRINT_INPUT option has been specified.


 OBSERVATIONS READ FROM FILE "gwf.wel.obs"
 ----------------------------------------------------------------------------------------------------------------------------------------------------------------------------------------------------------------------------
 NAME                                     TYPE                                       TIME         LOCATION DATA                              OUTPUT FILENAME                                                                 
 ----------------------------------------------------------------------------------------------------------------------------------------------------------------------------------------------------------------------------
 WEL                                      CONTINUOUS  WEL                            ALL TIMES    "  wel"                                    wel.csv                                                                         
 ----------------------------------------------------------------------------------------------------------------------------------------------------------------------------------------------------------------------------



The observation utility is active for "CHD_0"
 # File generated by Flopy version 3.3.6 on 07/16/2022 at 09:59:49.

Processing observation options:

Text output number of digits of precision set to:  9


start timestep kper="1" kstp="1" mode="normal"


 BEGIN READING OUTPUT CONTROL FOR STRESS PERIOD 1
      ALL TIME STEPS WILL BE SAVED
      ALL TIME STEPS WILL BE SAVED
      ALL TIME STEPS WILL BE PRINTED
      ALL TIME STEPS WILL BE PRINTED

 END READING OUTPUT CONTROL FOR STRESS PERIOD 1


 PROCESSING STORAGE PERIOD DATA
 END PROCESSING STORAGE PERIOD DATA


 STRESS PERIOD 1 IS STEADY-STATE


 REUSING WELS FROM LAST STRESS PERIOD
 UBDSV1 SAVING           STO-SS ON UNIT   1042 AT TIME STEP      1, STRESS PERIOD      1
 UBDSV1 SAVING           STO-SY ON UNIT   1042 AT TIME STEP      1, STRESS PERIOD      1
 UBDSV1 SAVING     FLOW-JA-FACE ON UNIT   1042 AT TIME STEP      1, STRESS PERIOD      1
 UBDSV06 SAVING       DATA-SPDIS IN MODEL GWF              PACKAGE NPF             CONNECTED TO MODEL GWF              PACKAGE NPF              ON UNIT   1042 AT TIME STEP      1, STRESS PERIOD      1
 UBDSV06 SAVING              WEL IN MODEL GWF              PACKAGE GWF             CONNECTED TO MODEL GWF              PACKAGE WEL-1            ON UNIT   1042 AT TIME STEP      1, STRESS PERIOD      1
 UBDSV06 SAVING              API IN MODEL GWF              PACKAGE GWF             CONNECTED TO MODEL GWF              PACKAGE MAR              ON UNIT   1042 AT TIME STEP      1, STRESS PERIOD      1
 UBDSV06 SAVING              CHD IN MODEL GWF              PACKAGE GWF             CONNECTED TO MODEL GWF              PACKAGE CHD_0            ON UNIT   1042 AT TIME STEP      1, STRESS PERIOD      1

    CALCULATED INTERCELL FLOW FOR PERIOD 1 STEP 1
(1,1,1): (1,1,2) 1.673229E-09 (1,2,1) 0.00000
(1,1,2): (1,1,1) -1.673229E-09 (1,1,3) 1.557020E-09 (1,2,2) 1.118035E-10
(1,1,3): (1,1,2) -1.557020E-09 (1,1,4) 1.263426E-09 (1,2,3) 2.063669E-10
(1,1,4): (1,1,3) -1.263426E-09 (1,1,5) 7.909180E-10 (1,2,4) 2.747789E-10
(1,1,5): (1,1,4) -7.909180E-10 (1,1,6) 1.890087E-10 (1,2,5) 3.071024E-10
(1,1,6): (1,1,5) -1.890087E-10 (1,1,7) -4.836441E-10 (1,2,6) 2.983029E-10
(1,1,7): (1,1,6) 4.836441E-10 (1,1,8) -1.149828E-09 (1,2,7) 2.496664E-10
(1,1,8): (1,1,7) 1.149828E-09 (1,1,9) -1.722144E-09 (1,2,8) 1.676874E-10
(1,1,9): (1,1,8) 1.722144E-09 (1,1,10) -2.117985E-09 (1,2,9) 6.977425E-11
(1,1,10): (1,1,9) 2.117985E-09 (1,2,10) 0.00000
(1,2,1): (1,1,1) 0.00000 (1,2,2) 1.785033E-09 (1,3,1) 0.00000
(1,2,2): (1,1,2) -1.118035E-10 (1,2,1) -1.785033E-09 (1,2,3) 1.651584E-09 (1,3,2) 8.749826E-11
(1,2,3): (1,1,3) -2.063669E-10 (1,2,2) -1.651584E-09 (1,2,4) 1.331838E-09 (1,3,3) 1.710725E-10
(1,2,4): (1,1,4) -2.747789E-10 (1,2,3) -1.331838E-09 (1,2,5) 8.232415E-10 (1,3,4) 2.409071E-10
(1,2,5): (1,1,5) -3.071024E-10 (1,2,4) -8.232415E-10 (1,2,6) 1.802091E-10 (1,3,5) 2.853612E-10
(1,2,6): (1,1,6) -2.983029E-10 (1,2,5) -1.802091E-10 (1,2,7) -5.322806E-10 (1,3,6) 2.915889E-10
(1,2,7): (1,1,7) -2.496664E-10 (1,2,6) 5.322806E-10 (1,2,8) -1.231807E-09 (1,3,7) 2.567867E-10
(1,2,8): (1,1,8) -1.676874E-10 (1,2,7) 1.231807E-09 (1,2,9) -1.820058E-09 (1,3,8) 1.878627E-10
(1,2,9): (1,1,9) -6.977425E-11 (1,2,8) 1.820058E-09 (1,2,10) -2.187760E-09 (1,3,9) 9.978572E-11
(1,2,10): (1,1,10) 0.00000 (1,2,9) 2.187760E-09 (1,3,10) 0.00000
(1,3,1): (1,2,1) 0.00000 (1,3,2) 1.872531E-09 (1,4,1) 0.00000
(1,3,2): (1,2,2) -8.749826E-11 (1,3,1) -1.872531E-09 (1,3,3) 1.735158E-09 (1,4,2) 7.253177E-11
(1,3,3): (1,2,3) -1.710725E-10 (1,3,2) -1.735158E-09 (1,3,4) 1.401672E-09 (1,4,3) 1.455323E-10
(1,3,4): (1,2,4) -2.409071E-10 (1,3,3) -1.401672E-09 (1,3,5) 8.676957E-10 (1,4,4) 1.988856E-10
(1,3,5): (1,2,5) -2.853612E-10 (1,3,4) -8.676957E-10 (1,3,6) 1.864368E-10 (1,4,5) 2.245528E-10
(1,3,6): (1,2,6) -2.915889E-10 (1,3,5) -1.864368E-10 (1,3,7) -5.670828E-10 (1,4,6) 2.186743E-10
(1,3,7): (1,2,7) -2.567867E-10 (1,3,6) 5.670828E-10 (1,3,8) -1.300731E-09 (1,4,7) 1.829400E-10
(1,3,8): (1,2,8) -1.878627E-10 (1,3,7) 1.300731E-09 (1,3,9) -1.908135E-09 (1,4,8) 1.266323E-10
(1,3,9): (1,2,9) -9.978572E-11 (1,3,8) 1.908135E-09 (1,3,10) -2.287545E-09 (1,4,9) 6.208817E-11
(1,3,10): (1,2,10) 0.00000 (1,3,9) 2.287545E-09 (1,4,10) 0.00000
(1,4,1): (1,3,1) 0.00000 (1,4,2) 1.945063E-09 (1,5,1) 0.00000
(1,4,2): (1,3,2) -7.253177E-11 (1,4,1) -1.945063E-09 (1,4,3) 1.808158E-09 (1,5,2) 2.058274E-11
(1,4,3): (1,3,3) -1.455323E-10 (1,4,2) -1.808158E-09 (1,4,4) 1.455026E-09 (1,5,3) 3.152982E-11
(1,4,4): (1,3,4) -1.988856E-10 (1,4,3) -1.455026E-09 (1,4,5) 8.933629E-10 (1,5,4) 2.415330E-11
(1,4,5): (1,3,5) -2.245528E-10 (1,4,4) -8.933629E-10 (1,4,6) 1.805582E-10 (1,5,5) 1.324256E-12
(1,4,6): (1,3,6) -2.186743E-10 (1,4,5) -1.805582E-10 (1,4,7) -6.028171E-10 (1,5,6) -2.798478E-11
(1,4,7): (1,3,7) -1.829400E-10 (1,4,6) 6.028171E-10 (1,4,8) -1.357038E-09 (1,5,7) -5.444537E-11
(1,4,8): (1,3,8) -1.266323E-10 (1,4,7) 1.357038E-09 (1,4,9) -1.972679E-09 (1,5,8) -6.588902E-11
(1,4,9): (1,3,9) -6.208817E-11 (1,4,8) 1.972679E-09 (1,4,10) -2.349634E-09 (1,5,9) -5.036634E-11
(1,4,10): (1,3,10) 0.00000 (1,4,9) 2.349634E-09 (1,5,10) 0.00000
(1,5,1): (1,4,1) 0.00000 (1,5,2) 1.965645E-09 (1,6,1) 0.00000
(1,5,2): (1,4,2) -2.058274E-11 (1,5,1) -1.965645E-09 (1,5,3) 1.819105E-09 (1,6,2) -9.227961E-11
(1,5,3): (1,4,3) -3.152982E-11 (1,5,2) -1.819105E-09 (1,5,4) 1.447649E-09 (1,6,3) -1.978559E-10
(1,5,4): (1,4,4) -2.415330E-11 (1,5,3) -1.447649E-09 (1,5,5) 8.705339E-10 (1,6,4) -3.063976E-10
(1,5,5): (1,4,5) -1.324256E-12 (1,5,4) -8.705339E-10 (1,5,6) 1.512492E-10 (1,6,5) -4.001399E-10
(1,5,6): (1,4,6) 2.798478E-11 (1,5,5) -1.512492E-10 (1,5,7) -6.292777E-10 (1,6,6) -4.570204E-10
(1,5,7): (1,4,7) 5.444537E-11 (1,5,6) 6.292777E-10 (1,5,8) -1.368482E-09 (1,6,7) -4.563544E-10
(1,5,8): (1,4,8) 6.588902E-11 (1,5,7) 1.368482E-09 (1,5,9) -1.957156E-09 (1,6,8) -3.825605E-10
(1,5,9): (1,4,9) 5.036634E-11 (1,5,8) 1.957156E-09 (1,5,10) -2.299267E-09 (1,6,9) -2.288127E-10
(1,5,10): (1,4,10) 0.00000 (1,5,9) 2.299267E-09 (1,6,10) 0.00000
(1,6,1): (1,5,1) 0.00000 (1,6,2) 1.873366E-09 (1,7,1) 0.00000
(1,6,2): (1,5,2) 9.227961E-11 (1,6,1) -1.873366E-09 (1,6,3) 1.713529E-09 (1,7,2) -2.553772E-10
(1,6,3): (1,5,3) 1.978559E-10 (1,6,2) -1.713529E-09 (1,6,4) 1.339108E-09 (1,7,3) -5.228517E-10
(1,6,4): (1,5,4) 3.063976E-10 (1,6,3) -1.339108E-09 (1,6,5) 7.767915E-10 (1,7,4) -7.676682E-10
(1,6,5): (1,5,5) 4.001399E-10 (1,6,4) -7.767915E-10 (1,6,6) 9.436868E-11 (1,7,5) -9.486633E-10
(1,6,6): (1,5,6) 4.570204E-10 (1,6,5) -9.436868E-11 (1,6,7) -6.286116E-10 (1,7,6) -1.028565E-09
(1,6,7): (1,5,7) 4.563544E-10 (1,6,6) 6.286116E-10 (1,6,8) -1.294688E-09 (1,7,7) -9.783529E-10
(1,6,8): (1,5,8) 3.825605E-10 (1,6,7) 1.294688E-09 (1,6,9) -1.803408E-09 (1,7,8) -7.836152E-10
(1,6,9): (1,5,9) 2.288127E-10 (1,6,8) 1.803408E-09 (1,6,10) -2.070455E-09 (1,7,9) -4.490271E-10
(1,6,10): (1,5,10) 0.00000 (1,6,9) 2.070455E-09 (1,7,10) 0.00000
(1,7,1): (1,6,1) 0.00000 (1,7,2) 1.617988E-09 (1,8,1) 0.00000
(1,7,2): (1,6,2) 2.553772E-10 (1,7,1) -1.617988E-09 (1,7,3) 1.446055E-09 (1,8,2) -4.513419E-10
(1,7,3): (1,6,3) 5.228517E-10 (1,7,2) -1.446055E-09 (1,7,4) 1.094291E-09 (1,8,3) -9.042900E-10
(1,7,4): (1,6,4) 7.676682E-10 (1,7,3) -1.094291E-09 (1,7,5) 5.957965E-10 (1,8,4) -1.298100E-09
(1,7,5): (1,6,5) 9.486633E-10 (1,7,4) -5.957965E-10 (1,7,6) 1.446739E-11 (1,8,5) -1.566352E-09
(1,7,6): (1,6,6) 1.028565E-09 (1,7,5) -1.446739E-11 (1,7,7) -5.783999E-10 (1,8,6) -1.657351E-09
(1,7,7): (1,6,7) 9.783529E-10 (1,7,6) 5.783999E-10 (1,7,8) -1.099950E-09 (1,8,7) -1.538677E-09
(1,7,8): (1,6,8) 7.836152E-10 (1,7,7) 1.099950E-09 (1,7,9) -1.468820E-09 (1,8,8) -1.203460E-09
(1,7,9): (1,6,9) 4.490271E-10 (1,7,8) 1.468820E-09 (1,7,10) -1.621427E-09 (1,8,9) -6.737935E-10
(1,7,10): (1,6,10) 0.00000 (1,7,9) 1.621427E-09 (1,8,10) 0.00000
(1,8,1): (1,7,1) 0.00000 (1,8,2) 1.166647E-09 (1,9,1) 0.00000
(1,8,2): (1,7,2) 4.513419E-10 (1,8,1) -1.166647E-09 (1,8,3) 9.931064E-10 (1,9,2) -6.493643E-10
(1,8,3): (1,7,3) 9.042900E-10 (1,8,2) -9.931064E-10 (1,8,4) 7.004811E-10 (1,9,3) -1.279973E-09
(1,8,4): (1,7,4) 1.298100E-09 (1,8,3) -7.004811E-10 (1,8,5) 3.275444E-10 (1,9,4) -1.806735E-09
(1,8,5): (1,7,5) 1.566352E-09 (1,8,4) -3.275444E-10 (1,8,6) -7.653171E-11 (1,9,5) -2.142891E-09
(1,8,6): (1,7,6) 1.657351E-09 (1,8,5) 7.653171E-11 (1,8,7) -4.597252E-10 (1,9,6) -2.227822E-09
(1,8,7): (1,7,7) 1.538677E-09 (1,8,6) 4.597252E-10 (1,8,8) -7.647335E-10 (1,9,7) -2.031760E-09
(1,8,8): (1,7,8) 1.203460E-09 (1,8,7) 7.647335E-10 (1,8,9) -9.391541E-10 (1,9,8) -1.560967E-09
(1,8,9): (1,7,9) 6.737935E-10 (1,8,8) 9.391541E-10 (1,8,10) -9.476339E-10 (1,9,9) -8.585988E-10
(1,8,10): (1,7,10) 0.00000 (1,8,9) 9.476339E-10 (1,9,10) 0.00000
(1,9,1): (1,8,1) 0.00000 (1,9,2) 5.172823E-10 (1,10,1) 0.00000
(1,9,2): (1,8,2) 6.493643E-10 (1,9,1) -5.172823E-10 (1,9,3) 3.624977E-10 (1,10,2) -8.102557E-10
(1,9,3): (1,8,3) 1.279973E-09 (1,9,2) -3.624977E-10 (1,9,4) 1.737188E-10 (1,10,3) -1.574539E-09
(1,9,4): (1,8,4) 1.806735E-09 (1,9,3) -1.737188E-10 (1,9,5) -8.611170E-12 (1,10,4) -2.189064E-09
(1,9,5): (1,8,5) 2.142891E-09 (1,9,4) 8.611170E-12 (1,9,6) -1.614629E-10 (1,10,5) -2.556513E-09
(1,9,6): (1,8,6) 2.227822E-09 (1,9,5) 1.614629E-10 (1,9,7) -2.636633E-10 (1,10,6) -2.616430E-09
(1,9,7): (1,8,7) 2.031760E-09 (1,9,6) 2.636633E-10 (1,9,8) -2.939403E-10 (1,10,7) -2.348427E-09
(1,9,8): (1,8,8) 1.560967E-09 (1,9,7) 2.939403E-10 (1,9,9) -2.367860E-10 (1,10,8) -1.775197E-09
(1,9,9): (1,8,9) 8.585988E-10 (1,9,8) 2.367860E-10 (1,9,10) -8.903514E-11 (1,10,9) -9.605559E-10
(1,9,10): (1,8,10) 0.00000 (1,9,9) 8.903514E-11 (1,10,10) 0.00000
(1,10,1): (1,9,1) 0.00000 (1,10,2) -2.929735E-10 (1,11,1) 0.00000
(1,10,2): (1,9,2) 8.102557E-10 (1,10,1) 2.929735E-10 (1,10,3) -4.017859E-10 (1,11,2) -8.957646E-10
(1,10,3): (1,9,3) 1.574539E-09 (1,10,2) 4.017859E-10 (1,10,4) -4.408055E-10 (1,11,3) -1.716009E-09
(1,10,4): (1,9,4) 2.189064E-09 (1,10,3) 4.408055E-10 (1,10,5) -3.760604E-10 (1,11,4) -2.348601E-09
(1,10,5): (1,9,5) 2.556513E-09 (1,10,4) 3.760604E-10 (1,10,6) -2.213795E-10 (1,11,5) -2.699053E-09
(1,10,6): (1,9,6) 2.616430E-09 (1,10,5) 2.213795E-10 (1,10,7) 4.339012E-12 (1,11,6) -2.717692E-09
(1,10,7): (1,9,7) 2.348427E-09 (1,10,6) -4.339012E-12 (1,10,8) 2.792903E-10 (1,11,7) -2.399583E-09
(1,10,8): (1,9,8) 1.775197E-09 (1,10,7) -2.792903E-10 (1,10,9) 5.778548E-10 (1,11,8) -1.783618E-09
(1,10,9): (1,9,9) 9.605559E-10 (1,10,8) -5.778548E-10 (1,10,10) 8.715207E-10 (1,11,9) -9.482848E-10
(1,10,10): (1,9,10) 0.00000 (1,10,9) -8.715207E-10 (1,11,10) 0.00000
(1,11,1): (1,10,1) 0.00000 (1,11,2) -1.188738E-09 (1,12,1) 0.00000
(1,11,2): (1,10,2) 8.957646E-10 (1,11,1) 1.188738E-09 (1,11,3) -1.222031E-09 (1,12,2) -8.774487E-10
(1,11,3): (1,10,3) 1.716009E-09 (1,11,2) 1.222031E-09 (1,11,4) -1.073397E-09 (1,12,3) -1.652421E-09
(1,11,4): (1,10,4) 2.348601E-09 (1,11,3) 1.073397E-09 (1,11,5) -7.265131E-10 (1,12,4) -2.219110E-09
(1,11,5): (1,10,5) 2.699053E-09 (1,11,4) 7.265131E-10 (1,11,6) -2.400184E-10 (1,12,5) -2.501397E-09
(1,11,6): (1,10,6) 2.717692E-09 (1,11,5) 2.400184E-10 (1,11,7) 3.224479E-10 (1,12,6) -2.469631E-09
(1,11,7): (1,10,7) 2.399583E-09 (1,11,6) -3.224479E-10 (1,11,8) 8.952553E-10 (1,12,7) -2.137211E-09
(1,11,8): (1,10,8) 1.783618E-09 (1,11,7) -8.952553E-10 (1,11,9) 1.413188E-09 (1,12,8) -1.555643E-09
(1,11,9): (1,10,9) 9.482848E-10 (1,11,8) -1.413188E-09 (1,11,10) 1.819806E-09 (1,12,9) -8.077529E-10
(1,11,10): (1,10,10) 0.00000 (1,11,9) -1.819806E-09 (1,12,10) 0.00000
(1,12,1): (1,11,1) 0.00000 (1,12,2) -2.066187E-09 (1,13,1) 0.00000
(1,12,2): (1,11,2) 8.774487E-10 (1,12,1) 2.066187E-09 (1,12,3) -1.997003E-09 (1,13,2) -7.445199E-10
(1,12,3): (1,11,3) 1.652421E-09 (1,12,2) 1.997003E-09 (1,12,4) -1.640086E-09 (1,13,3) -1.365720E-09
(1,12,4): (1,11,4) 2.219110E-09 (1,12,3) 1.640086E-09 (1,12,5) -1.008800E-09 (1,13,4) -1.782049E-09
(1,12,5): (1,11,5) 2.501397E-09 (1,12,4) 1.008800E-09 (1,12,6) -2.082528E-10 (1,13,5) -1.951651E-09
(1,12,6): (1,11,6) 2.469631E-09 (1,12,5) 2.082528E-10 (1,12,7) 6.548686E-10 (1,13,6) -1.870489E-09
(1,12,7): (1,11,7) 2.137211E-09 (1,12,6) -6.548686E-10 (1,12,8) 1.476823E-09 (1,13,7) -1.566674E-09
(1,12,8): (1,11,8) 1.555643E-09 (1,12,7) -1.476823E-09 (1,12,9) 2.161079E-09 (1,13,8) -1.098238E-09
(1,12,9): (1,11,9) 8.077529E-10 (1,12,8) -2.161079E-09 (1,12,10) 2.627558E-09 (1,13,9) -5.437002E-10
(1,12,10): (1,11,10) 0.00000 (1,12,9) -2.627558E-09 (1,13,10) 0.00000
(1,13,1): (1,12,1) 0.00000 (1,13,2) -2.810707E-09 (1,14,1) 0.00000
(1,13,2): (1,12,2) 7.445199E-10 (1,13,1) 2.810707E-09 (1,13,3) -2.618203E-09 (1,14,2) -5.109281E-10
(1,13,3): (1,12,3) 1.365720E-09 (1,13,2) 2.618203E-09 (1,13,4) -2.056415E-09 (1,14,3) -8.796044E-10
(1,13,4): (1,12,4) 1.782049E-09 (1,13,3) 2.056415E-09 (1,13,5) -1.178403E-09 (1,14,4) -1.073139E-09
(1,13,5): (1,12,5) 1.951651E-09 (1,13,4) 1.178403E-09 (1,13,6) -1.270906E-10 (1,14,5) -1.098032E-09
(1,13,6): (1,12,6) 1.870489E-09 (1,13,5) 1.270906E-10 (1,13,7) 9.586839E-10 (1,14,6) -9.787779E-10
(1,13,7): (1,12,7) 1.566674E-09 (1,13,6) -9.586839E-10 (1,13,8) 1.945258E-09 (1,14,7) -7.526898E-10
(1,13,8): (1,12,8) 1.098238E-09 (1,13,7) -1.945258E-09 (1,13,9) 2.715617E-09 (1,14,8) -4.717032E-10
(1,13,9): (1,12,9) 5.437002E-10 (1,13,8) -2.715617E-09 (1,13,10) 3.171259E-09 (1,14,9) -1.976783E-10
(1,13,10): (1,12,10) 0.00000 (1,13,9) -3.171259E-09 (1,14,10) 0.00000
(1,14,1): (1,13,1) 0.00000 (1,14,2) -3.321635E-09 (1,15,1) 0.00000
(1,14,2): (1,13,2) 5.109281E-10 (1,14,1) 3.321635E-09 (1,14,3) -2.986880E-09 (1,15,2) -2.247230E-10
(1,14,3): (1,13,3) 8.796044E-10 (1,14,2) 2.986880E-09 (1,14,4) -2.249949E-09 (1,15,3) -2.552191E-10
(1,14,4): (1,13,4) 1.073139E-09 (1,14,3) 2.249949E-09 (1,14,5) -1.203296E-09 (1,15,4) -1.745083E-10
(1,14,5): (1,13,5) 1.098032E-09 (1,14,4) 1.203296E-09 (1,14,6) -7.836345E-12 (1,15,5) -5.314046E-11
(1,14,6): (1,13,6) 9.787779E-10 (1,14,5) 7.836345E-12 (1,14,7) 1.184772E-09 (1,15,6) 7.463813E-11
(1,14,7): (1,13,7) 7.526898E-10 (1,14,6) -1.184772E-09 (1,14,8) 2.226245E-09 (1,15,7) 1.814764E-10
(1,14,8): (1,13,8) 4.717032E-10 (1,14,7) -2.226245E-09 (1,14,9) 2.989642E-09 (1,15,8) 2.400672E-10
(1,14,9): (1,13,9) 1.976783E-10 (1,14,8) -2.989642E-09 (1,14,10) 3.368937E-09 (1,15,9) 2.079226E-10
(1,14,10): (1,13,10) 0.00000 (1,14,9) -3.368937E-09 (1,15,10) 0.00000
(1,15,1): (1,14,1) 0.00000 (1,15,2) -3.546358E-09
(1,15,2): (1,14,2) 2.247230E-10 (1,15,1) 3.546358E-09 (1,15,3) -3.017376E-09
(1,15,3): (1,14,3) 2.552191E-10 (1,15,2) 3.017376E-09 (1,15,4) -2.169238E-09
(1,15,4): (1,14,4) 1.745083E-10 (1,15,3) 2.169238E-09 (1,15,5) -1.081928E-09
(1,15,5): (1,14,5) 5.314046E-11 (1,15,4) 1.081928E-09 (1,15,6) 1.199423E-10
(1,15,6): (1,14,6) -7.463813E-11 (1,15,5) -1.199423E-10 (1,15,7) 1.291610E-09
(1,15,7): (1,14,7) -1.814764E-10 (1,15,6) -1.291610E-09 (1,15,8) 2.284836E-09
(1,15,8): (1,14,8) -2.400672E-10 (1,15,7) -2.284836E-09 (1,15,9) 2.957497E-09
(1,15,9): (1,14,9) -2.079226E-10 (1,15,8) -2.957497E-09 (1,15,10) 3.161014E-09
(1,15,10): (1,14,10) 0.00000 (1,15,9) -3.161014E-09

 API PACKAGE (MAR) FLOW RATES   PERIOD      1   STEP        1
 -----------------------------------------------
   NUMBER   CELLID                    RATE      
 -----------------------------------------------
     1      (1,6,5)               0.0000000     
     2      (1,6,6)               0.0000000     
     3      (1,6,7)               0.0000000     
     4      (1,10,5)              0.0000000     
     5      (1,10,6)              0.0000000     
     6      (1,10,7)              0.0000000     
 -----------------------------------------------




 CHD PACKAGE (CHD_0) FLOW RATES   PERIOD      1   STEP        1
 ----------------------------------------------------------------------------------------
   NUMBER   CELLID                    RATE       NAME                                    
 ----------------------------------------------------------------------------------------
     1      (1,1,1)              -1.67322907E-09 CHD                                     
     2      (1,1,10)             -2.11798547E-09 CHD                                     
     3      (1,2,1)              -1.78503253E-09 CHD                                     
     4      (1,2,10)             -2.18775972E-09 CHD                                     
     5      (1,3,1)              -1.87253079E-09 CHD                                     
     6      (1,3,10)             -2.28754544E-09 CHD                                     
     7      (1,4,1)              -1.94506256E-09 CHD                                     
     8      (1,4,10)             -2.34963361E-09 CHD                                     
     9      (1,5,1)              -1.96564530E-09 CHD                                     
     10     (1,5,10)             -2.29926726E-09 CHD                                     
     11     (1,6,1)              -1.87336569E-09 CHD                                     
     12     (1,6,10)             -2.07045454E-09 CHD                                     
     13     (1,7,1)              -1.61798847E-09 CHD                                     
     14     (1,7,10)             -1.62142746E-09 CHD                                     
     15     (1,8,1)              -1.16664657E-09 CHD                                     
     16     (1,8,10)             -9.47633917E-10 CHD                                     
     17     (1,9,1)              -5.17282276E-10 CHD                                     
     18     (1,9,10)             -8.90351351E-11 CHD                                     
     19     (1,10,1)              2.92973454E-10 CHD                                     
     20     (1,10,10)             8.71520742E-10 CHD                                     
     21     (1,11,1)              1.18873809E-09 CHD                                     
     22     (1,11,10)             1.81980559E-09 CHD                                     
     23     (1,12,1)              2.06618678E-09 CHD                                     
     24     (1,12,10)             2.62755848E-09 CHD                                     
     25     (1,13,1)              2.81070664E-09 CHD                                     
     26     (1,13,10)             3.17125867E-09 CHD                                     
     27     (1,14,1)              3.32163475E-09 CHD                                     
     28     (1,14,10)             3.36893695E-09 CHD                                     
     29     (1,15,1)              3.54635778E-09 CHD                                     
     30     (1,15,10)             3.16101435E-09 CHD                                     
 ----------------------------------------------------------------------------------------



1
  HEAD IN LAYER   1 AT END OF TIME STEP   1 IN STRESS PERIOD    1
  ---------------------------------------------------------------------------

            1           2           3           4           5           6           7           8           9          10
 ........................................................................................................................
   1    0.000      1.6732E-10  3.2302E-10  4.4937E-10  5.2846E-10  5.4736E-10  4.9900E-10  3.8401E-10  2.1180E-10   0.000    
   2    0.000      1.7850E-10  3.4366E-10  4.7685E-10  5.5917E-10  5.7719E-10  5.2396E-10  4.0078E-10  2.1878E-10   0.000    
   3    0.000      1.8725E-10  3.6077E-10  5.0094E-10  5.8771E-10  6.0635E-10  5.4964E-10  4.1957E-10  2.2875E-10   0.000    
   4    0.000      1.9451E-10  3.7532E-10  5.2082E-10  6.1016E-10  6.2822E-10  5.6794E-10  4.3223E-10  2.3496E-10   0.000    
   5    0.000      1.9656E-10  3.7848E-10  5.2324E-10  6.1029E-10  6.2542E-10  5.6249E-10  4.2564E-10  2.2993E-10   0.000    
   6    0.000      1.8734E-10  3.5869E-10  4.9260E-10  5.7028E-10  5.7972E-10  5.1686E-10  3.8739E-10  2.0705E-10   0.000    
   7    0.000      1.6180E-10  3.0640E-10  4.1583E-10  4.7541E-10  4.7686E-10  4.1902E-10  3.0902E-10  1.6214E-10   0.000    
   8    0.000      1.1666E-10  2.1598E-10  2.8602E-10  3.1878E-10  3.1112E-10  2.6515E-10  1.8868E-10  9.4763E-11   0.000    
   9    0.000      5.1728E-11  8.7978E-11  1.0535E-10  1.0449E-10  8.8342E-11  6.1976E-11  3.2582E-11  8.9035E-12   0.000    
  10    0.000     -2.9297E-11 -6.9476E-11 -1.1356E-10 -1.5116E-10 -1.7330E-10 -1.7287E-10 -1.4494E-10 -8.7152E-11   0.000    
  11    0.000     -1.1887E-10 -2.4108E-10 -3.4842E-10 -4.2107E-10 -4.4507E-10 -4.1282E-10 -3.2330E-10 -1.8198E-10   0.000    
  12    0.000     -2.0662E-10 -4.0632E-10 -5.7033E-10 -6.7121E-10 -6.9203E-10 -6.2655E-10 -4.7886E-10 -2.6276E-10   0.000    
  13    0.000     -2.8107E-10 -5.4289E-10 -7.4853E-10 -8.6637E-10 -8.7908E-10 -7.8321E-10 -5.8869E-10 -3.1713E-10   0.000    
  14    0.000     -3.3216E-10 -6.3085E-10 -8.5585E-10 -9.7618E-10 -9.7696E-10 -8.5848E-10 -6.3586E-10 -3.3689E-10   0.000    
  15    0.000     -3.5464E-10 -6.5637E-10 -8.7330E-10 -9.8149E-10 -9.6950E-10 -8.4033E-10 -6.1185E-10 -3.1610E-10   0.000    

 HEAD WILL BE SAVED ON UNIT 1043 AT END OF TIME STEP    1, STRESS PERIOD    1


  VOLUME BUDGET FOR ENTIRE MODEL AT END OF TIME STEP    1, STRESS PERIOD   1
  ---------------------------------------------------------------------------------------------------

     CUMULATIVE VOLUME      L**3       RATES FOR THIS TIME STEP      L**3/T          PACKAGE NAME    
     ------------------                 ------------------------                     ----------------

           IN:                                      IN:
           ---                                      ---
              STO-SS =           0.0000                STO-SS =           0.0000     STORAGE                          
              STO-SY =           0.0000                STO-SY =           0.0000     STORAGE                          
                 WEL =           0.0000                   WEL =           0.0000     WEL-1                            
                 API =           0.0000                   API =           0.0000     MAR                              
                 CHD =       2.8247E-08                   CHD =       2.8247E-08     CHD_0                            

            TOTAL IN =       2.8247E-08              TOTAL IN =       2.8247E-08

          OUT:                                     OUT:
          ----                                     ----
              STO-SS =           0.0000                STO-SS =           0.0000     STORAGE                          
              STO-SY =           0.0000                STO-SY =           0.0000     STORAGE                          
                 WEL =           0.0000                   WEL =           0.0000     WEL-1                            
                 API =           0.0000                   API =           0.0000     MAR                              
                 CHD =       3.0388E-08                   CHD =       3.0388E-08     CHD_0                            

           TOTAL OUT =       3.0388E-08             TOTAL OUT =       3.0388E-08

            IN - OUT =      -2.1408E-09              IN - OUT =      -2.1408E-09

 PERCENT DISCREPANCY =          -7.30     PERCENT DISCREPANCY =          -7.30




         TIME SUMMARY AT END OF TIME STEP    1 IN STRESS PERIOD    1
                    SECONDS     MINUTES      HOURS       DAYS        YEARS
                    -----------------------------------------------------------
   TIME STEP LENGTH  86400.      1440.0      24.000      1.0000     2.73785E-03
 STRESS PERIOD TIME  86400.      1440.0      24.000      1.0000     2.73785E-03
         TOTAL TIME  86400.      1440.0      24.000      1.0000     2.73785E-03


end timestep


start timestep kper="2" kstp="1" mode="normal"


 END OF FILE DETECTED IN OUTPUT CONTROL.
 CURRENT OUTPUT CONTROL SETTINGS WILL BE 
 REPEATED UNTIL THE END OF THE SIMULATION.

 OUTPUT CONTROL FOR STRESS PERIOD 2 IS REPEATED USING SETTINGS FROM A PREVIOUS STRESS PERIOD.


 PROCESSING STORAGE PERIOD DATA
 END PROCESSING STORAGE PERIOD DATA


 STRESS PERIOD 2 IS TRANSIENT

 UBDSV1 SAVING           STO-SS ON UNIT   1042 AT TIME STEP      1, STRESS PERIOD      2
 UBDSV1 SAVING           STO-SY ON UNIT   1042 AT TIME STEP      1, STRESS PERIOD      2
 UBDSV1 SAVING     FLOW-JA-FACE ON UNIT   1042 AT TIME STEP      1, STRESS PERIOD      2
 UBDSV06 SAVING       DATA-SPDIS IN MODEL GWF              PACKAGE NPF             CONNECTED TO MODEL GWF              PACKAGE NPF              ON UNIT   1042 AT TIME STEP      1, STRESS PERIOD      2
 UBDSV06 SAVING              WEL IN MODEL GWF              PACKAGE GWF             CONNECTED TO MODEL GWF              PACKAGE WEL-1            ON UNIT   1042 AT TIME STEP      1, STRESS PERIOD      2
 UBDSV06 SAVING              API IN MODEL GWF              PACKAGE GWF             CONNECTED TO MODEL GWF              PACKAGE MAR              ON UNIT   1042 AT TIME STEP      1, STRESS PERIOD      2
 UBDSV06 SAVING              CHD IN MODEL GWF              PACKAGE GWF             CONNECTED TO MODEL GWF              PACKAGE CHD_0            ON UNIT   1042 AT TIME STEP      1, STRESS PERIOD      2

    CALCULATED INTERCELL FLOW FOR PERIOD 2 STEP 1
(1,1,1): (1,1,2) 2.722709E-09 (1,2,1) 1.425969E-09
(1,1,2): (1,1,1) -2.722709E-09 (1,1,3) 1.167884E-08 (1,2,2) 1.619267E-08
(1,1,3): (1,1,2) -1.167884E-08 (1,1,4) 7.041102E-08 (1,2,3) 1.689544E-07
(1,1,4): (1,1,3) -7.041102E-08 (1,1,5) 2.804709E-07 (1,2,4) 1.401271E-06
(1,1,5): (1,1,4) -2.804709E-07 (1,1,6) 5.765209E-08 (1,2,5) 7.430553E-06
(1,1,6): (1,1,5) -5.765209E-08 (1,1,7) -5.795246E-08 (1,2,6) 8.473176E-06
(1,1,7): (1,1,6) 5.795246E-08 (1,1,8) -2.808330E-07 (1,2,7) 7.430500E-06
(1,1,8): (1,1,7) 2.808330E-07 (1,1,9) -7.085745E-08 (1,2,8) 1.401179E-06
(1,1,9): (1,1,8) 7.085745E-08 (1,1,10) -1.202900E-08 (1,2,9) 1.689270E-07
(1,1,10): (1,1,9) 1.202900E-08 (1,2,10) 1.740687E-08
(1,2,1): (1,1,1) -1.425969E-09 (1,2,2) 1.748941E-08 (1,3,1) 1.661870E-08
(1,2,2): (1,1,2) -1.619267E-08 (1,2,1) -1.748941E-08 (1,2,3) 1.644406E-07 (1,3,2) 2.161691E-07
(1,2,3): (1,1,3) -1.689544E-07 (1,2,2) -1.644406E-07 (1,2,4) 1.302728E-06 (1,3,3) 2.635005E-06
(1,2,4): (1,1,4) -1.401271E-06 (1,2,3) -1.302728E-06 (1,2,5) 6.309752E-06 (1,3,4) 2.603955E-05
(1,2,5): (1,1,5) -7.430553E-06 (1,2,4) -6.309752E-06 (1,2,6) 1.100276E-06 (1,3,5) 1.685271E-04
(1,2,6): (1,1,6) -8.473176E-06 (1,2,5) -1.100276E-06 (1,2,7) -1.100629E-06 (1,3,6) 1.885741E-04
(1,2,7): (1,1,7) -7.430500E-06 (1,2,6) 1.100629E-06 (1,2,8) -6.310153E-06 (1,3,7) 1.685271E-04
(1,2,8): (1,1,8) -1.401179E-06 (1,2,7) 6.310153E-06 (1,2,9) -1.303110E-06 (1,3,8) 2.603956E-05
(1,2,9): (1,1,9) -1.689270E-07 (1,2,8) 1.303110E-06 (1,2,10) -1.635491E-07 (1,3,9) 2.635958E-06
(1,2,10): (1,1,10) -1.740687E-08 (1,2,9) 1.635491E-07 (1,3,10) 2.316053E-07
(1,3,1): (1,2,1) -1.661870E-08 (1,3,2) 2.170398E-07 (1,4,1) 1.648018E-07
(1,3,2): (1,2,2) -2.161691E-07 (1,3,1) -2.170398E-07 (1,3,3) 2.583276E-06 (1,4,2) 2.520656E-06
(1,3,3): (1,2,3) -2.635005E-06 (1,3,2) -2.583276E-06 (1,3,4) 2.470727E-05 (1,4,3) 3.683842E-05
(1,3,4): (1,2,4) -2.603955E-05 (1,3,3) -2.470727E-05 (1,3,5) 1.487973E-04 (1,4,4) 4.526418E-04
(1,3,5): (1,2,5) -1.685271E-04 (1,3,4) -1.487973E-04 (1,3,6) 2.114723E-05 (1,4,5) 3.824283E-03
(1,3,6): (1,2,6) -1.885741E-04 (1,3,5) -2.114723E-05 (1,3,7) -2.114761E-05 (1,4,6) 4.182127E-03
(1,3,7): (1,2,7) -1.685271E-04 (1,3,6) 2.114761E-05 (1,3,8) -1.487977E-04 (1,4,7) 3.824283E-03
(1,3,8): (1,2,8) -2.603956E-05 (1,3,7) 1.487977E-04 (1,3,9) -2.470671E-05 (1,4,8) 4.526422E-04
(1,3,9): (1,2,9) -2.635958E-06 (1,3,8) 2.470671E-05 (1,3,10) -2.567902E-06 (1,4,9) 3.684732E-05
(1,3,10): (1,2,10) -2.316053E-07 (1,3,9) 2.567902E-06 (1,4,10) 2.675878E-06
(1,4,1): (1,3,1) -1.648018E-07 (1,4,2) 2.572894E-06 (1,5,1) 1.254817E-06
(1,4,2): (1,3,2) -2.520656E-06 (1,4,1) -2.572894E-06 (1,4,3) 3.690104E-05 (1,5,2) 2.330017E-05
(1,4,3): (1,3,3) -3.683842E-05 (1,4,2) -3.690104E-05 (1,4,4) 4.405106E-04 (1,5,3) 4.266906E-04
(1,4,4): (1,3,4) -4.526418E-04 (1,4,3) -4.405106E-04 (1,4,5) 3.520429E-03 (1,5,4) 6.980740E-03
(1,4,5): (1,3,5) -3.824283E-03 (1,4,4) -3.520429E-03 (1,4,6) 3.789774E-04 (1,5,5) 8.701477E-02
(1,4,6): (1,3,6) -4.182127E-03 (1,4,5) -3.789774E-04 (1,4,7) -3.789778E-04 (1,5,6) 9.257212E-02
(1,4,7): (1,3,7) -3.824283E-03 (1,4,6) 3.789778E-04 (1,4,8) -3.520429E-03 (1,5,7) 8.701477E-02
(1,4,8): (1,3,8) -4.526422E-04 (1,4,7) 3.520429E-03 (1,4,9) -4.405015E-04 (1,5,8) 6.980742E-03
(1,4,9): (1,3,9) -3.684732E-05 (1,4,8) 4.405015E-04 (1,4,10) -3.673934E-05 (1,5,9) 4.267494E-04
(1,4,10): (1,3,10) -2.675878E-06 (1,4,9) 3.673934E-05 (1,5,10) 2.449309E-05
(1,5,1): (1,4,1) -1.254817E-06 (1,5,2) 2.461824E-05 (1,6,1) 5.408399E-06
(1,5,2): (1,4,2) -2.330017E-05 (1,5,1) -2.461824E-05 (1,5,3) 4.402915E-04 (1,6,2) 1.289708E-04
(1,5,3): (1,4,3) -4.266906E-04 (1,5,2) -4.402915E-04 (1,5,4) 6.994560E-03 (1,6,3) 3.203930E-03
(1,5,4): (1,4,4) -6.980740E-03 (1,5,3) -6.994560E-03 (1,5,5) 8.355169E-02 (1,6,4) 7.970595E-02
(1,5,5): (1,4,5) -8.701477E-02 (1,5,4) -8.355169E-02 (1,5,6) 5.931533E-03 (1,6,5) 1.98427
(1,5,6): (1,4,6) -9.257212E-02 (1,5,5) -5.931533E-03 (1,5,7) -5.931533E-03 (1,6,6) 2.04265
(1,5,7): (1,4,7) -8.701477E-02 (1,5,6) 5.931533E-03 (1,5,8) -8.355169E-02 (1,6,7) 1.98427
(1,5,8): (1,4,8) -6.980742E-03 (1,5,7) 8.355169E-02 (1,5,9) -6.994495E-03 (1,6,8) 7.970596E-02
(1,5,9): (1,4,9) -4.267494E-04 (1,5,8) 6.994495E-03 (1,5,10) -4.389957E-04 (1,6,9) 3.204140E-03
(1,5,10): (1,4,10) -2.449309E-05 (1,5,9) 4.389957E-04 (1,6,10) 1.341609E-04
(1,6,1): (1,5,1) -5.408399E-06 (1,6,2) 1.481807E-04 (1,7,1) -5.778288E-06
(1,6,2): (1,5,2) -1.289708E-04 (1,6,1) -1.481807E-04 (1,6,3) 3.515261E-03 (1,7,2) -1.360588E-04
(1,6,3): (1,5,3) -3.203930E-03 (1,6,2) -3.515261E-03 (1,6,4) 8.349948E-02 (1,7,3) -3.340414E-03
(1,6,4): (1,5,4) -7.970595E-02 (1,6,3) -8.349948E-02 (1,6,5) 1.98819 (1,7,4) -8.216912E-02
(1,6,5): (1,5,5) -1.98427 (1,6,4) -1.98819 (1,6,6) 6.322145E-02 (1,7,5) -2.02444
(1,6,6): (1,5,6) -2.04265 (1,6,5) -6.322145E-02 (1,6,7) -6.322145E-02 (1,7,6) -2.52550
(1,6,7): (1,5,7) -1.98427 (1,6,6) 6.322145E-02 (1,6,8) -1.98819 (1,7,7) -2.02444
(1,6,8): (1,5,8) -7.970596E-02 (1,6,7) 1.98819 (1,6,9) -8.349921E-02 (1,7,8) -8.216913E-02
(1,6,9): (1,5,9) -3.204140E-03 (1,6,8) 8.349921E-02 (1,6,10) -3.508984E-03 (1,7,9) -3.340641E-03
(1,6,10): (1,5,10) -1.341609E-04 (1,6,9) 3.508984E-03 (1,7,10) -1.416006E-04
(1,7,1): (1,6,1) 5.778288E-06 (1,7,2) 1.790020E-05 (1,8,1) -2.308147E-06
(1,7,2): (1,6,2) 1.360588E-04 (1,7,1) -1.790020E-05 (1,7,3) 3.108995E-04 (1,8,2) -4.953682E-05
(1,7,3): (1,6,3) 3.340414E-03 (1,7,2) -3.108995E-04 (1,7,4) 4.669725E-03 (1,8,3) -1.098662E-03
(1,7,4): (1,6,4) 8.216912E-02 (1,7,3) -4.669725E-03 (1,7,5) 4.659268E-02 (1,8,4) -2.405490E-02
(1,7,5): (1,6,5) 2.02444 (1,7,4) -4.659268E-02 (1,7,6) -0.427862 (1,8,5) -0.518107
(1,7,6): (1,6,6) 2.52550 (1,7,5) 0.427862 (1,7,7) 0.427862 (1,8,6) -10.9065
(1,7,7): (1,6,7) 2.02444 (1,7,6) -0.427862 (1,7,8) -4.659267E-02 (1,8,7) -0.518107
(1,7,8): (1,6,8) 8.216913E-02 (1,7,7) 4.659267E-02 (1,7,9) -4.669676E-03 (1,8,8) -2.405490E-02
(1,7,9): (1,6,9) 3.340641E-03 (1,7,8) 4.669676E-03 (1,7,10) -3.099385E-04 (1,8,9) -1.098760E-03
(1,7,10): (1,6,10) 1.416006E-04 (1,7,9) 3.099385E-04 (1,8,10) -5.174241E-05
(1,8,1): (1,7,1) 2.308147E-06 (1,8,2) -2.932847E-05 (1,9,1) 2.204605E-06
(1,8,2): (1,7,2) 4.953682E-05 (1,8,1) 2.932847E-05 (1,8,3) -7.382230E-04 (1,9,2) 4.765534E-05
(1,8,3): (1,7,3) 1.098662E-03 (1,8,2) 7.382230E-04 (1,8,4) -1.828540E-02 (1,9,3) 1.064933E-03
(1,8,4): (1,7,4) 2.405490E-02 (1,8,3) 1.828540E-02 (1,8,5) -0.447132 (1,9,4) 2.351435E-02
(1,8,5): (1,7,5) 0.518107 (1,8,4) 0.447132 (1,8,6) -10.8068 (1,9,5) 0.511476
(1,8,6): (1,7,6) 10.9065 (1,8,5) 10.8068 (1,8,7) 10.8068 (1,9,6) 10.8986
(1,8,7): (1,7,7) 0.518107 (1,8,6) -10.8068 (1,8,8) 0.447132 (1,9,7) 0.511476
(1,8,8): (1,7,8) 2.405490E-02 (1,8,7) -0.447132 (1,8,9) 1.828536E-02 (1,9,8) 2.351435E-02
(1,8,9): (1,7,9) 1.098760E-03 (1,8,8) -1.828536E-02 (1,8,10) 7.370759E-04 (1,9,9) 1.065026E-03
(1,8,10): (1,7,10) 5.174241E-05 (1,8,9) -7.370759E-04 (1,9,10) 4.976368E-05
(1,9,1): (1,8,1) -2.204605E-06 (1,9,2) 1.612226E-05 (1,10,1) 5.380816E-06
(1,9,2): (1,8,2) -4.765534E-05 (1,9,1) -1.612226E-05 (1,9,3) 2.790520E-04 (1,10,2) 1.266204E-04
(1,9,3): (1,8,3) -1.064933E-03 (1,9,2) -2.790520E-04 (1,9,4) 4.163010E-03 (1,10,3) 3.106683E-03
(1,9,4): (1,8,4) -2.351435E-02 (1,9,3) -4.163010E-03 (1,9,5) 4.053374E-02 (1,10,4) 7.636752E-02
(1,9,5): (1,8,5) -0.511476 (1,9,4) -4.053374E-02 (1,9,6) -0.428322 (1,10,5) 1.88027
(1,9,6): (1,8,6) -10.8986 (1,9,5) 0.428322 (1,9,7) 0.428322 (1,10,6) 2.37506
(1,9,7): (1,8,7) -0.511476 (1,9,6) -0.428322 (1,9,8) -4.053374E-02 (1,10,7) 1.88027
(1,9,8): (1,8,8) -2.351435E-02 (1,9,7) 4.053374E-02 (1,9,9) -4.162965E-03 (1,10,8) 7.636753E-02
(1,9,9): (1,8,9) -1.065026E-03 (1,9,8) 4.162965E-03 (1,9,10) -2.781839E-04 (1,10,9) 3.106894E-03
(1,9,10): (1,8,10) -4.976368E-05 (1,9,9) 2.781839E-04 (1,10,10) 1.317819E-04
(1,10,1): (1,9,1) -5.380816E-06 (1,10,2) 1.373619E-04 (1,11,1) -5.012354E-06
(1,10,2): (1,9,2) -1.266204E-04 (1,10,1) -1.373619E-04 (1,10,3) 3.259119E-03 (1,11,2) -1.195518E-04
(1,10,3): (1,9,3) -3.106683E-03 (1,10,2) -3.259119E-03 (1,10,4) 7.742462E-02 (1,11,3) -2.970416E-03
(1,10,4): (1,9,4) -7.636752E-02 (1,10,3) -7.742462E-02 (1,10,5) 1.84381 (1,11,4) -7.390669E-02
(1,10,5): (1,9,5) -1.88027 (1,10,4) -1.84381 (1,10,6) 5.728545E-02 (1,11,5) -1.84017
(1,10,6): (1,9,6) -2.37506 (1,10,5) -5.728545E-02 (1,10,7) -5.728545E-02 (1,11,6) -1.89293
(1,10,7): (1,9,7) -1.88027 (1,10,6) 5.728545E-02 (1,10,8) -1.84381 (1,11,7) -1.84017
(1,10,8): (1,9,8) -7.636753E-02 (1,10,7) 1.84381 (1,10,9) -7.742437E-02 (1,11,8) -7.390670E-02
(1,10,9): (1,9,9) -3.106894E-03 (1,10,8) 7.742437E-02 (1,10,10) -3.253301E-03 (1,11,9) -2.970609E-03
(1,10,10): (1,9,10) -1.317819E-04 (1,10,9) 3.253301E-03 (1,11,10) -1.243609E-04
(1,11,1): (1,10,1) 5.012354E-06 (1,11,2) 2.282242E-05 (1,12,1) -1.163363E-06
(1,11,2): (1,10,2) 1.195518E-04 (1,11,1) -2.282242E-05 (1,11,3) 4.082466E-04 (1,12,2) -2.160383E-05
(1,11,3): (1,10,3) 2.970416E-03 (1,11,2) -4.082466E-04 (1,11,4) 6.485853E-03 (1,12,3) -3.956376E-04
(1,11,4): (1,10,4) 7.390669E-02 (1,11,3) -6.485853E-03 (1,11,5) 7.747766E-02 (1,12,4) -6.473020E-03
(1,11,5): (1,10,5) 1.84017 (1,11,4) -7.747766E-02 (1,11,6) 5.442603E-03 (1,12,5) -8.068867E-02
(1,11,6): (1,10,6) 1.89293 (1,11,5) -5.442603E-03 (1,11,7) -5.442603E-03 (1,12,6) -8.578627E-02
(1,11,7): (1,10,7) 1.84017 (1,11,6) 5.442603E-03 (1,11,8) -7.747766E-02 (1,12,7) -8.068867E-02
(1,11,8): (1,10,8) 7.390670E-02 (1,11,7) 7.747766E-02 (1,11,9) -6.485792E-03 (1,12,8) -6.473022E-03
(1,11,9): (1,10,9) 2.970609E-03 (1,11,8) 6.485792E-03 (1,11,10) -4.070444E-04 (1,12,9) -3.956914E-04
(1,11,10): (1,10,10) 1.243609E-04 (1,11,9) 4.070444E-04 (1,12,10) -2.270896E-05
(1,12,1): (1,11,1) 1.163363E-06 (1,12,2) 2.381955E-06 (1,13,1) -1.528310E-07
(1,12,2): (1,11,2) 2.160383E-05 (1,12,1) -2.381955E-06 (1,12,3) 3.421278E-05 (1,13,2) -2.337852E-06
(1,12,3): (1,11,3) 3.956376E-04 (1,12,2) -3.421278E-05 (1,12,4) 4.084695E-04 (1,13,3) -3.415945E-05
(1,12,4): (1,11,4) 6.473020E-03 (1,12,3) -4.084695E-04 (1,12,5) 3.264386E-03 (1,13,4) -4.197222E-04
(1,12,5): (1,11,5) 8.068867E-02 (1,12,4) -3.264386E-03 (1,12,6) 3.490944E-04 (1,13,5) -3.546147E-03
(1,12,6): (1,11,6) 8.578627E-02 (1,12,5) -3.490944E-04 (1,12,7) -3.490939E-04 (1,13,6) -3.875737E-03
(1,12,7): (1,11,7) 8.068867E-02 (1,12,6) 3.490939E-04 (1,12,8) -3.264385E-03 (1,13,7) -3.546147E-03
(1,12,8): (1,11,8) 6.473022E-03 (1,12,7) 3.264385E-03 (1,12,9) -4.084601E-04 (1,13,8) -4.197220E-04
(1,12,9): (1,11,9) 3.956914E-04 (1,12,8) 4.084601E-04 (1,12,10) -3.406196E-05 (1,13,9) -3.416698E-05
(1,12,10): (1,11,10) 2.270896E-05 (1,12,9) 3.406196E-05 (1,13,10) -2.481123E-06
(1,13,1): (1,12,1) 1.528310E-07 (1,13,2) 1.969340E-07 (1,14,1) -1.542888E-08
(1,13,2): (1,12,2) 2.337852E-06 (1,13,1) -1.969340E-07 (1,13,3) 2.391175E-06 (1,14,2) -2.008604E-07
(1,13,3): (1,12,3) 3.415945E-05 (1,13,2) -2.391175E-06 (1,13,4) 2.290683E-05 (1,14,3) -2.444021E-06
(1,13,4): (1,12,4) 4.197222E-04 (1,13,3) -2.290683E-05 (1,13,5) 1.379693E-04 (1,14,4) -2.414634E-05
(1,13,5): (1,12,5) 3.546147E-03 (1,13,4) -1.379693E-04 (1,13,6) 1.951580E-05 (1,14,5) -1.562671E-04
(1,13,6): (1,12,6) 3.875737E-03 (1,13,5) -1.951580E-05 (1,13,7) -1.951497E-05 (1,14,6) -1.747666E-04
(1,13,7): (1,12,7) 3.546147E-03 (1,13,6) 1.951497E-05 (1,13,8) -1.379685E-04 (1,14,7) -1.562668E-04
(1,13,8): (1,12,8) 4.197220E-04 (1,13,7) 1.379685E-04 (1,13,9) -2.290520E-05 (1,14,8) -2.414582E-05
(1,13,9): (1,12,9) 3.416698E-05 (1,13,8) 2.290520E-05 (1,13,10) -2.376102E-06 (1,14,9) -2.444309E-06
(1,13,10): (1,12,10) 2.481123E-06 (1,13,9) 2.376102E-06 (1,14,10) -2.147570E-07
(1,14,1): (1,13,1) 1.542888E-08 (1,14,2) 1.150251E-08 (1,15,1) -1.328393E-09
(1,14,2): (1,13,2) 2.008604E-07 (1,14,1) -1.150251E-08 (1,14,3) 1.480142E-07 (1,15,2) -1.513681E-08
(1,14,3): (1,13,3) 2.444021E-06 (1,14,2) -1.480142E-07 (1,14,4) 1.204512E-06 (1,15,3) -1.567497E-07
(1,14,4): (1,13,4) 2.414634E-05 (1,14,3) -1.204512E-06 (1,14,5) 5.848574E-06 (1,15,4) -1.299300E-06
(1,14,5): (1,13,5) 1.562671E-04 (1,14,4) -5.848574E-06 (1,14,6) 1.016339E-06 (1,15,5) -6.889633E-06
(1,14,6): (1,13,6) 1.747666E-04 (1,14,5) -1.016339E-06 (1,14,7) -1.015175E-06 (1,15,6) -7.852729E-06
(1,14,7): (1,13,7) 1.562668E-04 (1,14,6) 1.015175E-06 (1,14,8) -5.847555E-06 (1,15,7) -6.889408E-06
(1,14,8): (1,13,8) 2.414582E-05 (1,14,7) 5.847555E-06 (1,14,9) -1.203692E-06 (1,15,8) -1.298909E-06
(1,14,9): (1,13,9) 2.444309E-06 (1,14,8) 1.203692E-06 (1,14,10) -1.465497E-07 (1,15,9) -1.564008E-07
(1,14,10): (1,13,10) 2.147570E-07 (1,14,9) 1.465497E-07 (1,15,10) -1.613027E-08
(1,15,1): (1,14,1) 1.328393E-09 (1,15,2) -2.305913E-09
(1,15,2): (1,14,2) 1.513681E-08 (1,15,1) 2.305913E-09 (1,15,3) 6.401258E-09
(1,15,3): (1,14,3) 1.567497E-07 (1,15,2) -6.401258E-09 (1,15,4) 6.196202E-08
(1,15,4): (1,14,4) 1.299300E-06 (1,15,3) -6.196202E-08 (1,15,5) 2.582410E-07
(1,15,5): (1,14,5) 6.889633E-06 (1,15,4) -2.582410E-07 (1,15,6) 5.324318E-08
(1,15,6): (1,14,6) 7.852729E-06 (1,15,5) -5.324318E-08 (1,15,7) -5.185318E-08
(1,15,7): (1,14,7) 6.889408E-06 (1,15,6) 5.185318E-08 (1,15,8) -2.570564E-07
(1,15,8): (1,14,8) 1.298909E-06 (1,15,7) 2.570564E-07 (1,15,9) -6.118410E-08
(1,15,9): (1,14,9) 1.564008E-07 (1,15,8) 6.118410E-08 (1,15,10) -6.279082E-09
(1,15,10): (1,14,10) 1.613027E-08 (1,15,9) 6.279082E-09

 WEL PACKAGE (WEL-1) FLOW RATES   PERIOD      2   STEP        1
 ----------------------------------------------------------------------------------------
   NUMBER   CELLID                    RATE       NAME                                    
 ----------------------------------------------------------------------------------------
     1      (1,8,6)              -270.00000      WEL                                     
 ----------------------------------------------------------------------------------------




 API PACKAGE (MAR) FLOW RATES   PERIOD      2   STEP        1
 -----------------------------------------------
   NUMBER   CELLID                    RATE      
 -----------------------------------------------
     1      (1,6,5)               46.666667     
     2      (1,6,6)               46.666667     
     3      (1,6,7)               46.666667     
     4      (1,10,5)              43.333333     
     5      (1,10,6)              43.333333     
     6      (1,10,7)              43.333333     
 -----------------------------------------------



1
  HEAD IN LAYER   1 AT END OF TIME STEP   1 IN STRESS PERIOD    2
  ---------------------------------------------------------------------------

            1           2           3           4           5           6           7           8           9          10
 ........................................................................................................................
   1   2.0732E-11  2.9300E-10  1.4609E-09  8.5020E-09  3.6549E-08  4.2314E-08  3.6519E-08  8.4358E-09  1.3500E-09  1.4711E-10
   2   1.6333E-10  1.9123E-09  1.8356E-08  1.4863E-07  7.7960E-07  8.8963E-07  7.7957E-07  1.4855E-07  1.8243E-08  1.8878E-09
   3   1.8252E-09  2.3529E-08  2.8186E-07  2.7526E-06  1.7632E-05  1.9747E-05  1.7632E-05  2.7525E-06  2.8184E-07  2.5048E-08
   4   1.8305E-08  2.7559E-07  3.9657E-06  4.8017E-05  4.0005E-04  4.3794E-04  4.0005E-04  4.8017E-05  3.9666E-06  2.9264E-07
   5   1.4379E-07  2.6056E-06  4.6635E-05  7.4604E-04  9.0936E-03  9.6862E-03  9.0936E-03  7.4604E-04  4.6641E-05  2.7419E-06
   6   6.8463E-07  1.5503E-05  3.6702E-04  8.7097E-03  0.2036      0.2098      0.2036      8.7097E-03  3.6704E-04  1.6158E-05
   7   1.0680E-07  1.8968E-06  3.2987E-05  4.9994E-04  5.1568E-03 -3.7607E-02  5.1568E-03  4.9994E-04  3.2992E-05  1.9980E-06
   8  -1.2402E-07 -3.0569E-06 -7.6879E-05 -1.9054E-03 -4.6627E-02  -1.132     -4.6627E-02 -1.9054E-03 -7.6884E-05 -3.1763E-06
   9   9.6444E-08  1.7087E-06  2.9614E-05  4.4590E-04  4.4974E-03 -3.8316E-02  4.4974E-03  4.4590E-04  2.9618E-05  1.8001E-06
  10   6.3453E-07  1.4371E-05  3.4027E-04  8.0765E-03  0.1890      0.1947      0.1890      8.0765E-03  3.4030E-04  1.4978E-05
  11   1.3329E-07  2.4155E-06  4.3240E-05  6.9178E-04  8.4330E-03  8.9768E-03  8.4330E-03  6.9178E-04  4.3246E-05  2.5422E-06
  12   1.6954E-08  2.5515E-07  3.6764E-06  4.4523E-05  3.7095E-04  4.0586E-04  3.7095E-04  4.4523E-05  3.6775E-06  2.7131E-07
  13   1.6708E-09  2.1364E-08  2.6048E-07  2.5512E-06  1.6348E-05  1.8300E-05  1.6348E-05  2.5513E-06  2.6081E-07  2.3201E-08
  14   1.2795E-10  1.2782E-09  1.6080E-08  1.3653E-07  7.2139E-07  8.2302E-07  7.2150E-07  1.3675E-07  1.6380E-08  1.7250E-09
  15  -4.8852E-12 -2.3548E-10  4.0465E-10  6.6009E-09  3.2425E-08  3.7749E-08  3.2564E-08  6.8583E-09  7.3990E-10  1.1199E-10

 HEAD WILL BE SAVED ON UNIT 1043 AT END OF TIME STEP    1, STRESS PERIOD    2


  VOLUME BUDGET FOR ENTIRE MODEL AT END OF TIME STEP    1, STRESS PERIOD   2
  ---------------------------------------------------------------------------------------------------

     CUMULATIVE VOLUME      L**3       RATES FOR THIS TIME STEP      L**3/T          PACKAGE NAME    
     ------------------                 ------------------------                     ----------------

           IN:                                      IN:
           ---                                      ---
              STO-SS =           1.2410                STO-SS =           0.1241     STORAGE                          
              STO-SY =        2611.0413                STO-SY =         261.1041     STORAGE                          
                 WEL =           0.0000                   WEL =           0.0000     WEL-1                            
                 API =        2700.0000                   API =         270.0000     MAR                              
                 CHD =       2.8247E-08                   CHD =           0.0000     CHD_0                            

            TOTAL IN =        5312.2824              TOTAL IN =         531.2282

          OUT:                                     OUT:
          ----                                     ----
              STO-SS =           1.3173                STO-SS =           0.1317     STORAGE                          
              STO-SY =        2610.9650                STO-SY =         261.0965     STORAGE                          
                 WEL =        2700.0000                   WEL =         270.0000     WEL-1                            
                 API =           0.0000                   API =           0.0000     MAR                              
                 CHD =       3.0388E-08                   CHD =           0.0000     CHD_0                            

           TOTAL OUT =        5312.2824             TOTAL OUT =         531.2282

            IN - OUT =      -4.9822E-09              IN - OUT =      -2.8422E-10

 PERCENT DISCREPANCY =          -0.00     PERCENT DISCREPANCY =          -0.00




         TIME SUMMARY AT END OF TIME STEP    1 IN STRESS PERIOD    2
                    SECONDS     MINUTES      HOURS       DAYS        YEARS
                    -----------------------------------------------------------
   TIME STEP LENGTH 8.64000E+05  14400.      240.00      10.000     2.73785E-02
 STRESS PERIOD TIME 8.64000E+05  14400.      240.00      10.000     2.73785E-02
         TOTAL TIME 9.50400E+05  15840.      264.00      11.000     3.01164E-02


end timestep


start timestep kper="2" kstp="2" mode="normal"

 UBDSV1 SAVING           STO-SS ON UNIT   1042 AT TIME STEP      2, STRESS PERIOD      2
 UBDSV1 SAVING           STO-SY ON UNIT   1042 AT TIME STEP      2, STRESS PERIOD      2
 UBDSV1 SAVING     FLOW-JA-FACE ON UNIT   1042 AT TIME STEP      2, STRESS PERIOD      2
 UBDSV06 SAVING       DATA-SPDIS IN MODEL GWF              PACKAGE NPF             CONNECTED TO MODEL GWF              PACKAGE NPF              ON UNIT   1042 AT TIME STEP      2, STRESS PERIOD      2
 UBDSV06 SAVING              WEL IN MODEL GWF              PACKAGE GWF             CONNECTED TO MODEL GWF              PACKAGE WEL-1            ON UNIT   1042 AT TIME STEP      2, STRESS PERIOD      2
 UBDSV06 SAVING              API IN MODEL GWF              PACKAGE GWF             CONNECTED TO MODEL GWF              PACKAGE MAR              ON UNIT   1042 AT TIME STEP      2, STRESS PERIOD      2
 UBDSV06 SAVING              CHD IN MODEL GWF              PACKAGE GWF             CONNECTED TO MODEL GWF              PACKAGE CHD_0            ON UNIT   1042 AT TIME STEP      2, STRESS PERIOD      2

    CALCULATED INTERCELL FLOW FOR PERIOD 2 STEP 2
(1,1,1): (1,1,2) 1.129179E-08 (1,2,1) 1.233618E-08
(1,1,2): (1,1,1) -1.129179E-08 (1,1,3) 8.094934E-08 (1,2,2) 1.254383E-07
(1,1,3): (1,1,2) -8.094934E-08 (1,1,4) 4.855629E-07 (1,2,3) 1.176585E-06
(1,1,4): (1,1,3) -4.855629E-07 (1,1,5) 1.732358E-06 (1,2,4) 8.641602E-06
(1,1,5): (1,1,4) -1.732358E-06 (1,1,6) 3.939118E-07 (1,2,5) 4.027913E-05
(1,1,6): (1,1,5) -3.939118E-07 (1,1,7) -3.942171E-07 (1,2,6) 4.645738E-05
(1,1,7): (1,1,6) 3.942171E-07 (1,1,8) -1.732716E-06 (1,2,7) 4.027909E-05
(1,1,8): (1,1,7) 1.732716E-06 (1,1,9) -4.859177E-07 (1,2,8) 8.641579E-06
(1,1,9): (1,1,8) 4.859177E-07 (1,1,10) -8.029700E-08 (1,2,9) 1.177394E-06
(1,1,10): (1,1,9) 8.029700E-08 (1,2,10) 1.366739E-07
(1,2,1): (1,1,1) -1.233618E-08 (1,2,2) 1.243939E-07 (1,3,1) 1.298836E-07
(1,2,2): (1,1,2) -1.254383E-07 (1,2,1) -1.243939E-07 (1,2,3) 1.132097E-06 (1,3,2) 1.498838E-06
(1,2,3): (1,1,3) -1.176585E-06 (1,2,2) -1.132097E-06 (1,2,4) 7.950579E-06 (1,3,3) 1.610202E-05
(1,2,4): (1,1,4) -8.641602E-06 (1,2,3) -7.950579E-06 (1,2,5) 3.336989E-05 (1,3,4) 1.379898E-04
(1,2,5): (1,1,5) -4.027913E-05 (1,2,4) -3.336989E-05 (1,2,6) 6.572155E-06 (1,3,5) 7.633179E-04
(1,2,6): (1,1,6) -4.645738E-05 (1,2,5) -6.572155E-06 (1,2,7) -6.572505E-06 (1,3,6) 8.653355E-04
(1,2,7): (1,1,7) -4.027909E-05 (1,2,6) 6.572505E-06 (1,2,8) -3.337022E-05 (1,3,7) 7.633180E-04
(1,2,8): (1,1,8) -8.641579E-06 (1,2,7) 3.337022E-05 (1,2,9) -7.950103E-06 (1,3,8) 1.379904E-04
(1,2,9): (1,1,9) -1.177394E-06 (1,2,8) 7.950103E-06 (1,2,10) -1.121017E-06 (1,3,9) 1.611077E-05
(1,2,10): (1,1,10) -1.366739E-07 (1,2,9) 1.121017E-06 (1,3,10) 1.619163E-06
(1,3,1): (1,2,1) -1.298836E-07 (1,3,2) 1.493348E-06 (1,4,1) 1.144910E-06
(1,3,2): (1,2,2) -1.498838E-06 (1,3,1) -1.493348E-06 (1,3,3) 1.573528E-05 (1,4,2) 1.530423E-05
(1,3,3): (1,2,3) -1.610202E-05 (1,3,2) -1.573528E-05 (1,3,4) 1.298384E-04 (1,4,3) 1.932180E-04
(1,3,4): (1,2,4) -1.379898E-04 (1,3,3) -1.298384E-04 (1,3,5) 6.586973E-04 (1,4,4) 2.004022E-03
(1,3,5): (1,2,5) -7.633179E-04 (1,3,4) -6.586973E-04 (1,3,6) 1.085889E-04 (1,4,5) 1.391133E-02
(1,3,6): (1,2,6) -8.653355E-04 (1,3,5) -1.085889E-04 (1,3,7) -1.085893E-04 (1,4,6) 1.543010E-02
(1,3,7): (1,2,7) -7.633180E-04 (1,3,6) 1.085893E-04 (1,3,8) -6.586971E-04 (1,4,7) 1.391133E-02
(1,3,8): (1,2,8) -1.379904E-04 (1,3,7) 6.586971E-04 (1,3,9) -1.298297E-04 (1,4,8) 2.004026E-03
(1,3,9): (1,2,9) -1.611077E-05 (1,3,8) 1.298297E-04 (1,3,10) -1.561262E-05 (1,4,9) 1.932874E-04
(1,3,10): (1,2,10) -1.619163E-06 (1,3,9) 1.561262E-05 (1,4,10) 1.637511E-05
(1,4,1): (1,3,1) -1.144910E-06 (1,4,2) 1.565267E-05 (1,5,1) 7.612593E-06
(1,4,2): (1,3,2) -1.530423E-05 (1,4,1) -1.565267E-05 (1,4,3) 1.936491E-04 (1,5,2) 1.211547E-04
(1,4,3): (1,3,3) -1.932180E-04 (1,4,2) -1.936491E-04 (1,4,4) 1.940641E-03 (1,5,3) 1.866596E-03
(1,4,4): (1,3,4) -2.004022E-03 (1,4,3) -1.940641E-03 (1,4,5) 1.256584E-02 (1,5,4) 2.481604E-02
(1,4,5): (1,3,5) -1.391133E-02 (1,4,4) -1.256584E-02 (1,4,6) 1.627157E-03 (1,5,5) 0.239252
(1,4,6): (1,3,6) -1.543010E-02 (1,4,5) -1.627157E-03 (1,4,7) -1.627157E-03 (1,5,6) 0.258057
(1,4,7): (1,3,7) -1.391133E-02 (1,4,6) 1.627157E-03 (1,4,8) -1.256584E-02 (1,5,7) 0.239252
(1,4,8): (1,3,8) -2.004026E-03 (1,4,7) 1.256584E-02 (1,4,9) -1.940567E-03 (1,5,8) 2.481606E-02
(1,4,9): (1,3,9) -1.932874E-04 (1,4,8) 1.940567E-03 (1,4,10) -1.925249E-04 (1,5,9) 1.867000E-03
(1,4,10): (1,3,10) -1.637511E-05 (1,4,9) 1.925249E-04 (1,5,10) 1.283406E-04
(1,5,1): (1,4,1) -7.612593E-06 (1,5,2) 1.291948E-04 (1,6,1) 2.775736E-05
(1,5,2): (1,4,2) -1.211547E-04 (1,5,1) -1.291948E-04 (1,5,3) 1.939092E-03 (1,6,2) 5.531729E-04
(1,5,3): (1,4,3) -1.866596E-03 (1,5,2) -1.939092E-03 (1,5,4) 2.489010E-02 (1,6,3) 1.114776E-02
(1,5,4): (1,4,4) -2.481604E-02 (1,5,3) -2.489010E-02 (1,5,5) 0.226976 (1,6,4) 0.212929
(1,5,5): (1,4,5) -0.239252 (1,5,4) -0.226976 (1,5,6) 2.038835E-02 (1,6,5) 3.69600
(1,5,6): (1,4,6) -0.258057 (1,5,5) -2.038835E-02 (1,5,7) -2.038835E-02 (1,6,6) 3.83727
(1,5,7): (1,4,7) -0.239252 (1,5,6) 2.038835E-02 (1,5,8) -0.226976 (1,6,7) 3.69600
(1,5,8): (1,4,8) -2.481606E-02 (1,5,7) 0.226976 (1,5,9) -2.488965E-02 (1,6,8) 0.212929
(1,5,9): (1,4,9) -1.867000E-03 (1,5,8) 2.488965E-02 (1,5,10) -1.931185E-03 (1,6,9) 1.114899E-02
(1,5,10): (1,4,10) -1.283406E-04 (1,5,9) 1.931185E-03 (1,6,10) 5.796320E-04
(1,6,1): (1,5,1) -2.775736E-05 (1,6,2) 6.546108E-04 (1,7,1) -3.031089E-05
(1,6,2): (1,5,2) -5.531729E-04 (1,6,1) -6.546108E-04 (1,6,3) 1.253382E-02 (1,7,2) -5.959033E-04
(1,6,3): (1,5,3) -1.114776E-02 (1,6,2) -1.253382E-02 (1,6,4) 0.226699 (1,7,3) -1.185640E-02
(1,6,4): (1,5,4) -0.212929 (1,6,3) -0.226699 (1,6,5) 3.71051 (1,7,4) -0.223670
(1,6,5): (1,5,5) -3.69600 (1,6,4) -3.71051 (1,6,6) 0.157039 (1,7,5) -3.83952
(1,6,6): (1,5,6) -3.83727 (1,6,5) -0.157039 (1,6,7) -0.157039 (1,7,6) -5.15414
(1,6,7): (1,5,7) -3.69600 (1,6,6) 0.157039 (1,6,8) -3.71051 (1,7,7) -3.83952
(1,6,8): (1,5,8) -0.212929 (1,6,7) 3.71051 (1,6,9) -0.226697 (1,7,8) -0.223670
(1,6,9): (1,5,9) -1.114899E-02 (1,6,8) 0.226697 (1,6,10) -1.250069E-02 (1,7,9) -1.185777E-02
(1,6,10): (1,5,10) -5.796320E-04 (1,6,9) 1.250069E-02 (1,7,10) -6.247774E-04
(1,7,1): (1,6,1) 3.031089E-05 (1,7,2) 8.901814E-05 (1,8,1) -1.368402E-05
(1,7,2): (1,6,2) 5.959033E-04 (1,7,1) -8.901814E-05 (1,7,3) 1.273244E-03 (1,8,2) -2.514146E-04
(1,7,3): (1,6,3) 1.185640E-02 (1,7,2) -1.273244E-03 (1,7,4) 1.487888E-02 (1,8,3) -4.677112E-03
(1,7,4): (1,6,4) 0.223670 (1,7,3) -1.487888E-02 (1,7,5) 9.897880E-02 (1,8,4) -8.274352E-02
(1,7,5): (1,6,5) 3.83952 (1,7,4) -9.897880E-02 (1,7,6) -1.10934 (1,8,5) -1.35973
(1,7,6): (1,6,6) 5.15414 (1,7,5) 1.10934 (1,7,7) 1.10934 (1,8,6) -19.7166
(1,7,7): (1,6,7) 3.83952 (1,7,6) -1.10934 (1,7,8) -9.897878E-02 (1,8,7) -1.35973
(1,7,8): (1,6,8) 0.223670 (1,7,7) 9.897878E-02 (1,7,9) -1.487855E-02 (1,8,8) -8.274355E-02
(1,7,9): (1,6,9) 1.185777E-02 (1,7,8) 1.487855E-02 (1,7,10) -1.267622E-03 (1,8,9) -4.677767E-03
(1,7,10): (1,6,10) 6.247774E-04 (1,7,9) 1.267622E-03 (1,8,10) -2.644091E-04
(1,8,1): (1,7,1) 1.368402E-05 (1,8,2) -1.487123E-04 (1,9,1) 1.304191E-05
(1,8,2): (1,7,2) 2.514146E-04 (1,8,1) 1.487123E-04 (1,8,3) -3.152402E-03 (1,9,2) 2.414159E-04
(1,8,3): (1,7,3) 4.677112E-03 (1,8,2) 3.152402E-03 (1,8,4) -6.317447E-02 (1,9,3) 4.526235E-03
(1,8,4): (1,7,4) 8.274352E-02 (1,8,3) 6.317447E-02 (1,8,5) -1.17578 (1,9,4) 8.077763E-02
(1,8,5): (1,7,5) 1.35973 (1,8,4) 1.17578 (1,8,6) -19.4198 (1,9,5) 1.34094
(1,8,6): (1,7,6) 19.7166 (1,8,5) 19.4198 (1,8,7) 19.4198 (1,9,6) 19.6925
(1,8,7): (1,7,7) 1.35973 (1,8,6) -19.4198 (1,8,8) 1.17578 (1,9,7) 1.34094
(1,8,8): (1,7,8) 8.274355E-02 (1,8,7) -1.17578 (1,8,9) 6.317418E-02 (1,9,8) 8.077766E-02
(1,8,9): (1,7,9) 4.677767E-03 (1,8,8) -6.317418E-02 (1,8,10) 3.145685E-03 (1,9,9) 4.526856E-03
(1,8,10): (1,7,10) 2.644091E-04 (1,8,9) -3.145685E-03 (1,9,10) 2.538061E-04
(1,9,1): (1,8,1) -1.304191E-05 (1,9,2) 7.966153E-05 (1,10,1) 2.824864E-05
(1,9,2): (1,8,2) -2.414159E-04 (1,9,1) -7.966153E-05 (1,9,3) 1.132371E-03 (1,10,2) 5.549950E-04
(1,9,3): (1,8,3) -4.526235E-03 (1,9,2) -1.132371E-03 (1,9,4) 1.306521E-02 (1,10,3) 1.103436E-02
(1,9,4): (1,8,4) -8.077763E-02 (1,9,3) -1.306521E-02 (1,9,5) 8.239596E-02 (1,10,4) 0.207987
(1,9,5): (1,8,5) -1.34094 (1,9,4) -8.239596E-02 (1,9,6) -1.11088 (1,10,5) 3.56720
(1,9,6): (1,8,6) -19.6925 (1,9,5) 1.11088 (1,9,7) 1.11088 (1,10,6) 4.86330
(1,9,7): (1,8,7) -1.34094 (1,9,6) -1.11088 (1,9,8) -8.239594E-02 (1,10,7) 3.56720
(1,9,8): (1,8,8) -8.077766E-02 (1,9,7) 8.239594E-02 (1,9,9) -1.306491E-02 (1,10,8) 0.207988
(1,9,9): (1,8,9) -4.526856E-03 (1,9,8) 1.306491E-02 (1,9,10) -1.127319E-03 (1,10,9) 1.103564E-02
(1,9,10): (1,8,10) -2.538061E-04 (1,9,9) 1.127319E-03 (1,10,10) 5.819049E-04
(1,10,1): (1,9,1) -2.824864E-05 (1,10,2) 6.064082E-04 (1,11,1) -2.570592E-05
(1,10,2): (1,9,2) -5.549950E-04 (1,10,1) -6.064082E-04 (1,10,3) 1.161180E-02 (1,11,2) -5.123902E-04
(1,10,3): (1,9,3) -1.103436E-02 (1,10,2) -1.161180E-02 (1,10,4) 0.210022 (1,11,3) -1.032709E-02
(1,10,4): (1,9,4) -0.207987 (1,10,3) -0.210022 (1,10,5) 3.43755 (1,11,4) -0.197261
(1,10,5): (1,9,5) -3.56720 (1,10,4) -3.43755 (1,10,6) 0.140797 (1,11,5) -3.42411
(1,10,6): (1,9,6) -4.86330 (1,10,5) -0.140797 (1,10,7) -0.140797 (1,11,6) -3.55012
(1,10,7): (1,9,7) -3.56720 (1,10,6) 0.140797 (1,10,8) -3.43755 (1,11,7) -3.42411
(1,10,8): (1,9,8) -0.207988 (1,10,7) 3.43755 (1,10,9) -0.210021 (1,11,8) -0.197261
(1,10,9): (1,9,9) -1.103564E-02 (1,10,8) 0.210021 (1,10,10) -1.158111E-02 (1,11,9) -1.032824E-02
(1,10,10): (1,9,10) -5.819049E-04 (1,10,9) 1.158111E-02 (1,11,10) -5.368932E-04
(1,11,1): (1,10,1) 2.570592E-05 (1,11,2) 1.197234E-04 (1,12,1) -7.054307E-06
(1,11,2): (1,10,2) 5.123902E-04 (1,11,1) -1.197234E-04 (1,11,3) 1.796969E-03 (1,12,2) -1.122737E-04
(1,11,3): (1,10,3) 1.032709E-02 (1,11,2) -1.796969E-03 (1,11,4) 2.306472E-02 (1,12,3) -1.729767E-03
(1,11,4): (1,10,4) 0.197261 (1,11,3) -2.306472E-02 (1,11,5) 0.210302 (1,12,4) -2.299593E-02
(1,11,5): (1,10,5) 3.42411 (1,11,4) -0.210302 (1,11,6) 1.863903E-02 (1,12,5) -0.221676
(1,11,6): (1,10,6) 3.55012 (1,11,5) -1.863903E-02 (1,11,7) -1.863902E-02 (1,12,6) -0.238857
(1,11,7): (1,10,7) 3.42411 (1,11,6) 1.863902E-02 (1,11,8) -0.210302 (1,12,7) -0.221676
(1,11,8): (1,10,8) 0.197261 (1,11,7) 0.210302 (1,11,9) -2.306429E-02 (1,12,8) -2.299595E-02
(1,11,9): (1,10,9) 1.032824E-02 (1,11,8) 2.306429E-02 (1,11,10) -1.789642E-03 (1,12,9) -1.730140E-03
(1,11,10): (1,10,10) 5.368932E-04 (1,11,9) 1.789642E-03 (1,12,10) -1.189317E-04
(1,12,1): (1,11,1) 7.054307E-06 (1,12,2) 1.450400E-05 (1,13,1) -1.061189E-06
(1,12,2): (1,11,2) 1.122737E-04 (1,12,1) -1.450400E-05 (1,12,3) 1.794749E-04 (1,13,2) -1.418509E-05
(1,12,3): (1,11,3) 1.729767E-03 (1,12,2) -1.794749E-04 (1,12,4) 1.798538E-03 (1,13,3) -1.790792E-04
(1,12,4): (1,11,4) 2.299593E-02 (1,12,3) -1.798538E-03 (1,12,5) 1.164426E-02 (1,13,4) -1.857281E-03
(1,12,5): (1,11,5) 0.221676 (1,12,4) -1.164426E-02 (1,12,6) 1.495815E-03 (1,13,5) -1.289124E-02
(1,12,6): (1,11,6) 0.238857 (1,12,5) -1.495815E-03 (1,12,7) -1.495814E-03 (1,13,6) -1.428715E-02
(1,12,7): (1,11,7) 0.221676 (1,12,6) 1.495814E-03 (1,12,8) -1.164425E-02 (1,13,7) -1.289124E-02
(1,12,8): (1,11,8) 2.299595E-02 (1,12,7) 1.164425E-02 (1,12,9) -1.798469E-03 (1,13,8) -1.857285E-03
(1,12,9): (1,11,9) 1.730140E-03 (1,12,8) 1.798469E-03 (1,12,10) -1.784323E-04 (1,13,9) -1.791428E-04
(1,12,10): (1,11,10) 1.189317E-04 (1,12,9) 1.784323E-04 (1,13,10) -1.517699E-05
(1,13,1): (1,12,1) 1.061189E-06 (1,13,2) 1.380101E-06 (1,14,1) -1.204286E-07
(1,13,2): (1,12,2) 1.418509E-05 (1,13,1) -1.380101E-06 (1,13,3) 1.458076E-05 (1,14,2) -1.389696E-06
(1,13,3): (1,12,3) 1.790792E-04 (1,13,2) -1.458076E-05 (1,13,4) 1.203369E-04 (1,14,3) -1.492548E-05
(1,13,4): (1,12,4) 1.857281E-03 (1,13,3) -1.203369E-04 (1,13,5) 6.104365E-04 (1,14,4) -1.278965E-04
(1,13,5): (1,12,5) 1.289124E-02 (1,13,4) -6.104365E-04 (1,13,6) 1.000809E-04 (1,14,5) -7.074088E-04
(1,13,6): (1,12,6) 1.428715E-02 (1,13,5) -1.000809E-04 (1,13,7) -1.000800E-04 (1,14,6) -8.014244E-04
(1,13,7): (1,12,7) 1.289124E-02 (1,13,6) 1.000800E-04 (1,13,8) -6.104351E-04 (1,14,7) -7.074085E-04
(1,13,8): (1,12,8) 1.857285E-03 (1,13,7) 6.104351E-04 (1,13,9) -1.203278E-04 (1,14,8) -1.278965E-04
(1,13,9): (1,12,9) 1.791428E-04 (1,13,8) 1.203278E-04 (1,13,10) -1.446647E-05 (1,14,9) -1.493301E-05
(1,13,10): (1,12,10) 1.517699E-05 (1,13,9) 1.446647E-05 (1,14,10) -1.500823E-06
(1,14,1): (1,13,1) 1.204286E-07 (1,14,2) 1.108340E-07 (1,15,1) -1.144758E-08
(1,14,2): (1,13,2) 1.389696E-06 (1,14,1) -1.108340E-07 (1,14,3) 1.044977E-06 (1,15,2) -1.163995E-07
(1,14,3): (1,13,3) 1.492548E-05 (1,14,2) -1.044977E-06 (1,14,4) 7.365912E-06 (1,15,3) -1.090724E-06
(1,14,4): (1,13,4) 1.278965E-04 (1,14,3) -7.365912E-06 (1,14,5) 3.092471E-05 (1,15,4) -8.009866E-06
(1,14,5): (1,13,5) 7.074088E-04 (1,14,4) -3.092471E-05 (1,14,6) 6.065899E-06 (1,15,5) -3.733081E-05
(1,14,6): (1,13,6) 8.014244E-04 (1,14,5) -6.065899E-06 (1,14,7) -6.064743E-06 (1,15,6) -4.303285E-05
(1,14,7): (1,13,7) 7.074085E-04 (1,14,6) 6.064743E-06 (1,14,8) -3.092364E-05 (1,15,7) -3.733060E-05
(1,14,8): (1,13,8) 1.278965E-04 (1,14,7) 3.092364E-05 (1,14,9) -7.364323E-06 (1,15,8) -8.009549E-06
(1,14,9): (1,13,9) 1.493301E-05 (1,14,8) 7.364323E-06 (1,14,10) -1.034278E-06 (1,15,9) -1.091162E-06
(1,14,10): (1,13,10) 1.500823E-06 (1,14,9) 1.034278E-06 (1,15,10) -1.266731E-07
(1,15,1): (1,14,1) 1.144758E-08 (1,15,2) 5.882019E-09
(1,15,2): (1,14,2) 1.163995E-07 (1,15,1) -5.882019E-09 (1,15,3) 7.065266E-08
(1,15,3): (1,14,3) 1.090724E-06 (1,15,2) -7.065266E-08 (1,15,4) 4.467704E-07
(1,15,4): (1,14,4) 8.009866E-06 (1,15,3) -4.467704E-07 (1,15,5) 1.603769E-06
(1,15,5): (1,14,5) 3.733081E-05 (1,15,4) -1.603769E-06 (1,15,6) 3.638663E-07
(1,15,6): (1,14,6) 4.303285E-05 (1,15,5) -3.638663E-07 (1,15,7) -3.624968E-07
(1,15,7): (1,14,7) 3.733060E-05 (1,15,6) 3.624968E-07 (1,15,8) -1.602597E-06
(1,15,8): (1,14,8) 8.009549E-06 (1,15,7) 1.602597E-06 (1,15,9) -4.459364E-07
(1,15,9): (1,14,9) 1.091162E-06 (1,15,8) 4.459364E-07 (1,15,10) -6.978952E-08
(1,15,10): (1,14,10) 1.266731E-07 (1,15,9) 6.978952E-08

 WEL PACKAGE (WEL-1) FLOW RATES   PERIOD      2   STEP        2
 ----------------------------------------------------------------------------------------
   NUMBER   CELLID                    RATE       NAME                                    
 ----------------------------------------------------------------------------------------
     1      (1,8,6)              -270.00000      WEL                                     
 ----------------------------------------------------------------------------------------




 API PACKAGE (MAR) FLOW RATES   PERIOD      2   STEP        2
 -----------------------------------------------
   NUMBER   CELLID                    RATE      
 -----------------------------------------------
     1      (1,6,5)               46.666667     
     2      (1,6,6)               46.666667     
     3      (1,6,7)               46.666667     
     4      (1,10,5)              43.333333     
     5      (1,10,6)              43.333333     
     6      (1,10,7)              43.333333     
 -----------------------------------------------



1
  HEAD IN LAYER   1 AT END OF TIME STEP   2 IN STRESS PERIOD    2
  ---------------------------------------------------------------------------

            1           2           3           4           5           6           7           8           9          10
 ........................................................................................................................
   1   1.3881E-10  1.2680E-09  9.3629E-09  5.7919E-08  2.3116E-07  2.7055E-07  2.3112E-07  5.7853E-08  9.2611E-09  1.2314E-09
   2   1.3724E-09  1.3812E-08  1.2702E-07  9.2208E-07  4.2591E-06  4.9163E-06  4.2590E-06  9.2201E-07  1.2700E-07  1.4899E-08
   3   1.4361E-08  1.6370E-07  1.7372E-06  1.4721E-05  8.0590E-05  9.1449E-05  8.0590E-05  1.4721E-05  1.7381E-06  1.7682E-07
   4   1.2885E-07  1.6941E-06  2.1059E-05  2.1512E-04  1.4715E-03  1.6342E-03  1.4715E-03  2.1512E-04  2.1067E-05  1.8143E-06
   5   8.9011E-07  1.3810E-05  2.0771E-04  2.6961E-03  2.5336E-02  2.7370E-02  2.5336E-02  2.6961E-03  2.0776E-04  1.4648E-05
   6   3.6658E-06  6.9126E-05  1.3223E-03  2.3938E-02  0.3814      0.3965      0.3814      2.3938E-02  1.3225E-03  7.2611E-05
   7   6.3476E-07  9.5366E-06  1.3686E-04  1.6245E-03  1.1511E-02 -9.9295E-02  1.1511E-02  1.6245E-03  1.3689E-04  1.0134E-05
   8  -7.3364E-07 -1.5605E-05 -3.3085E-04 -6.6485E-03 -0.1243      -2.091     -0.1243     -6.6485E-03 -3.3088E-04 -1.6307E-05
   9   5.7055E-07  8.5367E-06  1.2177E-04  1.4281E-03  9.6598E-03 -0.1013      9.6598E-03  1.4281E-03  1.2180E-04  9.0736E-06
  10   3.3954E-06  6.4036E-05  1.2251E-03  2.2181E-02  0.3542      0.3678      0.3542      2.2181E-02  1.2252E-03  6.7264E-05
  11   8.2482E-07  1.2797E-05  1.9249E-04  2.4984E-03  2.3479E-02  2.5339E-02  2.3479E-02  2.4984E-03  1.9254E-04  1.3575E-05
  12   1.1939E-07  1.5698E-06  1.9517E-05  1.9937E-04  1.3636E-03  1.5132E-03  1.3636E-03  1.9937E-04  1.9525E-05  1.6815E-06
  13   1.3269E-08  1.5128E-07  1.6094E-06  1.3643E-05  7.4686E-05  8.4694E-05  7.4686E-05  1.3643E-05  1.6105E-06  1.6384E-07
  14   1.2265E-09  1.2310E-08  1.1681E-07  8.5340E-07  3.9459E-06  4.5525E-06  3.9460E-06  8.5362E-07  1.1719E-07  1.3761E-08
  15   8.1720E-11  6.6992E-10  7.7352E-09  5.2412E-08  2.1279E-07  2.4918E-07  2.1293E-07  5.2666E-08  8.0728E-09  1.0938E-09

 HEAD WILL BE SAVED ON UNIT 1043 AT END OF TIME STEP    2, STRESS PERIOD    2


  VOLUME BUDGET FOR ENTIRE MODEL AT END OF TIME STEP    2, STRESS PERIOD   2
  ---------------------------------------------------------------------------------------------------

     CUMULATIVE VOLUME      L**3       RATES FOR THIS TIME STEP      L**3/T          PACKAGE NAME    
     ------------------                 ------------------------                     ----------------

           IN:                                      IN:
           ---                                      ---
              STO-SS =           2.3328                STO-SS =           0.1092     STORAGE                          
              STO-SY =        5107.8925                STO-SY =         249.6851     STORAGE                          
                 WEL =           0.0000                   WEL =           0.0000     WEL-1                            
                 API =        5400.0000                   API =         270.0000     MAR                              
                 CHD =       2.8247E-08                   CHD =           0.0000     CHD_0                            

            TOTAL IN =       10510.2253              TOTAL IN =         519.7943

          OUT:                                     OUT:
          ----                                     ----
              STO-SS =           2.5958                STO-SS =           0.1279     STORAGE                          
              STO-SY =        5107.6294                STO-SY =         249.6664     STORAGE                          
                 WEL =        5400.0000                   WEL =         270.0000     WEL-1                            
                 API =           0.0000                   API =           0.0000     MAR                              
                 CHD =       3.0388E-08                   CHD =           0.0000     CHD_0                            

           TOTAL OUT =       10510.2253             TOTAL OUT =         519.7943

            IN - OUT =      -1.0610E-08              IN - OUT =      -5.6286E-10

 PERCENT DISCREPANCY =          -0.00     PERCENT DISCREPANCY =          -0.00




         TIME SUMMARY AT END OF TIME STEP    2 IN STRESS PERIOD    2
                    SECONDS     MINUTES      HOURS       DAYS        YEARS
                    -----------------------------------------------------------
   TIME STEP LENGTH 8.64000E+05  14400.      240.00      10.000     2.73785E-02
 STRESS PERIOD TIME 1.72800E+06  28800.      480.00      20.000     5.47570E-02
         TOTAL TIME 1.81440E+06  30240.      504.00      21.000     5.74949E-02


end timestep


start timestep kper="2" kstp="3" mode="normal"

 UBDSV1 SAVING           STO-SS ON UNIT   1042 AT TIME STEP      3, STRESS PERIOD      2
 UBDSV1 SAVING           STO-SY ON UNIT   1042 AT TIME STEP      3, STRESS PERIOD      2
 UBDSV1 SAVING     FLOW-JA-FACE ON UNIT   1042 AT TIME STEP      3, STRESS PERIOD      2
 UBDSV06 SAVING       DATA-SPDIS IN MODEL GWF              PACKAGE NPF             CONNECTED TO MODEL GWF              PACKAGE NPF              ON UNIT   1042 AT TIME STEP      3, STRESS PERIOD      2
 UBDSV06 SAVING              WEL IN MODEL GWF              PACKAGE GWF             CONNECTED TO MODEL GWF              PACKAGE WEL-1            ON UNIT   1042 AT TIME STEP      3, STRESS PERIOD      2
 UBDSV06 SAVING              API IN MODEL GWF              PACKAGE GWF             CONNECTED TO MODEL GWF              PACKAGE MAR              ON UNIT   1042 AT TIME STEP      3, STRESS PERIOD      2
 UBDSV06 SAVING              CHD IN MODEL GWF              PACKAGE GWF             CONNECTED TO MODEL GWF              PACKAGE CHD_0            ON UNIT   1042 AT TIME STEP      3, STRESS PERIOD      2

    CALCULATED INTERCELL FLOW FOR PERIOD 2 STEP 3
(1,1,1): (1,1,2) 4.807431E-08 (1,2,1) 5.887435E-08
(1,1,2): (1,1,1) -4.807431E-08 (1,1,3) 3.478229E-07 (1,2,2) 5.432181E-07
(1,1,3): (1,1,2) -3.478229E-07 (1,1,4) 1.912186E-06 (1,2,3) 4.618749E-06
(1,1,4): (1,1,3) -1.912186E-06 (1,1,5) 6.140726E-06 (1,2,4) 3.050133E-05
(1,1,5): (1,1,4) -6.140726E-06 (1,1,6) 1.520052E-06 (1,2,5) 1.275621E-04
(1,1,6): (1,1,5) -1.520052E-06 (1,1,7) -1.520359E-06 (1,2,6) 1.485159E-04
(1,1,7): (1,1,6) 1.520359E-06 (1,1,8) -6.141047E-06 (1,2,7) 1.275620E-04
(1,1,8): (1,1,7) 6.141047E-06 (1,1,9) -1.912098E-06 (1,2,8) 3.050163E-05
(1,1,9): (1,1,8) 1.912098E-06 (1,1,10) -3.428180E-07 (1,2,9) 4.623404E-06
(1,1,10): (1,1,9) 3.428180E-07 (1,2,10) 5.968156E-07
(1,2,1): (1,1,1) -5.887435E-08 (1,2,2) 5.324181E-07 (1,3,1) 5.646344E-07
(1,2,2): (1,1,2) -5.432181E-07 (1,2,1) -5.324181E-07 (1,2,3) 4.423354E-06 (1,3,2) 5.855032E-06
(1,2,3): (1,1,3) -4.618749E-06 (1,2,2) -4.423354E-06 (1,2,4) 2.779476E-05 (1,3,3) 5.630822E-05
(1,2,4): (1,1,4) -3.050133E-05 (1,2,3) -2.779476E-05 (1,2,5) 1.032014E-04 (1,3,4) 4.272378E-04
(1,2,5): (1,1,5) -1.275621E-04 (1,2,4) -1.032014E-04 (1,2,6) 2.247384E-05 (1,3,5) 2.077761E-03
(1,2,6): (1,1,6) -1.485159E-04 (1,2,5) -2.247384E-05 (1,2,7) -2.247417E-05 (1,3,6) 2.381128E-03
(1,2,7): (1,1,7) -1.275620E-04 (1,2,6) 2.247417E-05 (1,2,8) -1.032014E-04 (1,3,7) 2.077761E-03
(1,2,8): (1,1,8) -3.050163E-05 (1,2,7) 1.032014E-04 (1,2,9) -2.779032E-05 (1,3,8) 4.272409E-04
(1,2,9): (1,1,9) -4.623404E-06 (1,2,8) 2.779032E-05 (1,2,10) -4.369406E-06 (1,3,9) 5.634990E-05
(1,2,10): (1,1,10) -5.968156E-07 (1,2,9) 4.369406E-06 (1,3,10) 6.374488E-06
(1,3,1): (1,2,1) -5.646344E-07 (1,3,2) 5.822816E-06 (1,4,1) 4.479369E-06
(1,3,2): (1,2,2) -5.855032E-06 (1,3,1) -5.822816E-06 (1,3,3) 5.487654E-05 (1,4,2) 5.317159E-05
(1,3,3): (1,2,3) -5.630822E-05 (1,3,2) -5.487654E-05 (1,3,4) 3.987243E-04 (1,4,3) 5.920475E-04
(1,3,4): (1,2,4) -4.272378E-04 (1,3,3) -3.987243E-04 (1,3,5) 1.753719E-03 (1,4,4) 5.332209E-03
(1,3,5): (1,2,5) -2.077761E-03 (1,3,4) -1.753719E-03 (1,3,6) 3.258343E-04 (1,4,5) 3.167635E-02
(1,3,6): (1,2,6) -2.381128E-03 (1,3,5) -3.258343E-04 (1,3,7) -3.258345E-04 (1,4,6) 3.555044E-02
(1,3,7): (1,2,7) -2.077761E-03 (1,3,6) 3.258345E-04 (1,3,8) -1.753716E-03 (1,4,7) 3.167635E-02
(1,3,8): (1,2,8) -4.272409E-04 (1,3,7) 1.753716E-03 (1,3,9) -3.986812E-04 (1,4,8) 5.332229E-03
(1,3,9): (1,2,9) -5.634990E-05 (1,3,8) 3.986812E-04 (1,3,10) -5.434482E-05 (1,4,9) 5.923461E-04
(1,3,10): (1,2,10) -6.374488E-06 (1,3,9) 5.434482E-05 (1,4,10) 5.733089E-05
(1,4,1): (1,3,1) -4.479369E-06 (1,4,2) 5.451504E-05 (1,5,1) 2.642446E-05
(1,4,2): (1,3,2) -5.317159E-05 (1,4,1) -5.451504E-05 (1,4,3) 5.937525E-04 (1,5,2) 3.680305E-04
(1,4,3): (1,3,3) -5.920475E-04 (1,4,2) -5.937525E-04 (1,4,4) 5.138877E-03 (1,5,3) 4.907028E-03
(1,4,4): (1,3,4) -5.332209E-03 (1,4,3) -5.138877E-03 (1,4,5) 2.809692E-02 (1,5,4) 5.522591E-02
[...]

          OUT:                                     OUT:
          ----                                     ----
              STO-SS =          34.4116                STO-SS =       1.2797E-02     STORAGE                          
              STO-SY =       66416.3331                STO-SY =          24.8874     STORAGE                          
                 WEL =      217932.2499                   WEL =         199.0739     WEL-1                            
                 API =           0.0000                   API =           0.0000     MAR                              
                 CHD =       3.0388E-08                   CHD =           0.0000     CHD_0                            

           TOTAL OUT =      284382.9946             TOTAL OUT =         223.9741

            IN - OUT =       4.9155E-06              IN - OUT =       7.9747E-09

 PERCENT DISCREPANCY =           0.00     PERCENT DISCREPANCY =           0.00




         TIME SUMMARY AT END OF TIME STEP   99 IN STRESS PERIOD    2
                    SECONDS     MINUTES      HOURS       DAYS        YEARS
                    -----------------------------------------------------------
   TIME STEP LENGTH 8.64000E+05  14400.      240.00      10.000     2.73785E-02
 STRESS PERIOD TIME 8.55360E+07 1.42560E+06  23760.      990.00      2.7105    
         TOTAL TIME 8.56224E+07 1.42704E+06  23784.      991.00      2.7132    


end timestep


start timestep kper="2" kstp="100" mode="normal"

 UBDSV1 SAVING           STO-SS ON UNIT   1042 AT TIME STEP    100, STRESS PERIOD      2
 UBDSV1 SAVING           STO-SY ON UNIT   1042 AT TIME STEP    100, STRESS PERIOD      2
 UBDSV1 SAVING     FLOW-JA-FACE ON UNIT   1042 AT TIME STEP    100, STRESS PERIOD      2
 UBDSV06 SAVING       DATA-SPDIS IN MODEL GWF              PACKAGE NPF             CONNECTED TO MODEL GWF              PACKAGE NPF              ON UNIT   1042 AT TIME STEP    100, STRESS PERIOD      2
 UBDSV06 SAVING              WEL IN MODEL GWF              PACKAGE GWF             CONNECTED TO MODEL GWF              PACKAGE WEL-1            ON UNIT   1042 AT TIME STEP    100, STRESS PERIOD      2
 UBDSV06 SAVING              API IN MODEL GWF              PACKAGE GWF             CONNECTED TO MODEL GWF              PACKAGE MAR              ON UNIT   1042 AT TIME STEP    100, STRESS PERIOD      2
 UBDSV06 SAVING              CHD IN MODEL GWF              PACKAGE GWF             CONNECTED TO MODEL GWF              PACKAGE CHD_0            ON UNIT   1042 AT TIME STEP    100, STRESS PERIOD      2

    CALCULATED INTERCELL FLOW FOR PERIOD 2 STEP 100
(1,1,1): (1,1,2) 0.145281 (1,2,1) 0.131572
(1,1,2): (1,1,1) -0.145281 (1,1,3) 0.267684 (1,2,2) 0.193555
(1,1,3): (1,1,2) -0.267684 (1,1,4) 0.329333 (1,2,3) 0.320549
(1,1,4): (1,1,3) -0.329333 (1,1,5) 0.283600 (1,2,4) 0.501079
(1,1,5): (1,1,4) -0.283600 (1,1,6) 0.118396 (1,2,5) 0.678726
(1,1,6): (1,1,5) -0.118396 (1,1,7) -9.158201E-02 (1,2,6) 0.750697
(1,1,7): (1,1,6) 9.158201E-02 (1,1,8) -0.243972 (1,2,7) 0.684775
(1,1,8): (1,1,7) 0.243972 (1,1,9) -0.263292 (1,2,8) 0.516946
(1,1,9): (1,1,8) 0.263292 (1,1,10) -0.163141 (1,2,9) 0.355337
(1,1,10): (1,1,9) 0.163141 (1,2,10) 0.264197
(1,2,1): (1,1,1) -0.131572 (1,2,2) 0.207273 (1,3,1) 0.220013
(1,2,2): (1,1,2) -0.193555 (1,2,1) -0.207273 (1,2,3) 0.394769 (1,3,2) 0.341897
(1,2,3): (1,1,3) -0.320549 (1,2,2) -0.394769 (1,2,4) 0.509878 (1,3,3) 0.608825
(1,2,4): (1,1,4) -0.501079 (1,2,3) -0.509878 (1,2,5) 0.460880 (1,3,4) 1.02739
(1,2,5): (1,1,5) -0.678726 (1,2,4) -0.460880 (1,2,6) 0.189989 (1,3,5) 1.48529
(1,2,6): (1,1,6) -0.750697 (1,2,5) -0.189989 (1,2,7) -0.157136 (1,3,6) 1.66109
(1,2,7): (1,1,7) -0.684775 (1,2,6) 0.157136 (1,2,8) -0.411368 (1,3,7) 1.49485
(1,2,8): (1,1,8) -0.516946 (1,2,7) 0.411368 (1,2,9) -0.424758 (1,3,8) 1.05272
(1,2,9): (1,1,9) -0.355337 (1,2,8) 0.424758 (1,2,10) -0.254192 (1,3,9) 0.665914
(1,2,10): (1,1,10) -0.264197 (1,2,9) 0.254192 (1,3,10) 0.463330
(1,3,1): (1,2,1) -0.220013 (1,3,2) 0.329142 (1,4,1) 0.204307
(1,3,2): (1,2,2) -0.341897 (1,3,1) -0.329142 (1,3,3) 0.661831 (1,4,2) 0.361748
(1,3,3): (1,2,3) -0.608825 (1,3,2) -0.661831 (1,3,4) 0.928058 (1,4,3) 0.760169
(1,3,4): (1,2,4) -1.02739 (1,3,3) -0.928058 (1,3,5) 0.916394 (1,4,4) 1.52639
(1,3,5): (1,2,5) -1.48529 (1,3,4) -0.916394 (1,3,6) 0.363743 (1,4,5) 2.57921
(1,3,6): (1,2,6) -1.66109 (1,3,5) -0.363743 (1,3,7) -0.321369 (1,4,6) 2.91385
(1,3,7): (1,2,7) -1.49485 (1,3,6) 0.321369 (1,3,8) -0.850905 (1,4,7) 2.58706
(1,3,8): (1,2,8) -1.05272 (1,3,7) 0.850905 (1,3,9) -0.810686 (1,4,8) 1.54734
(1,3,9): (1,2,9) -0.665914 (1,3,8) 0.810686 (1,3,10) -0.456373 (1,4,9) 0.810435
(1,3,10): (1,2,10) -0.463330 (1,3,9) 0.456373 (1,4,10) 0.480868
(1,4,1): (1,3,1) -0.204307 (1,4,2) 0.486772 (1,5,1) 1.812299E-02
(1,4,2): (1,3,2) -0.361748 (1,4,1) -0.486772 (1,4,3) 1.06138 (1,5,2) 0.119930
(1,4,3): (1,3,3) -0.760169 (1,4,2) -1.06138 (1,4,4) 1.69546 (1,5,3) 0.511641
(1,4,4): (1,3,4) -1.52639 (1,4,3) -1.69546 (1,4,5) 1.96359 (1,5,4) 1.69862
(1,4,5): (1,3,5) -2.57921 (1,4,4) -1.96359 (1,4,6) 0.692158 (1,5,5) 4.33118
(1,4,6): (1,3,6) -2.91385 (1,4,5) -0.692158 (1,4,7) -0.641926 (1,5,6) 4.75050
(1,4,7): (1,3,7) -2.58706 (1,4,6) 0.641926 (1,4,8) -1.88429 (1,5,7) 4.33053
(1,4,8): (1,3,8) -1.54734 (1,4,7) 1.88429 (1,4,9) -1.54759 (1,5,8) 1.69627
(1,4,9): (1,3,9) -0.810435 (1,4,8) 1.54759 (1,4,10) -0.785864 (1,5,9) 0.510537
(1,4,10): (1,3,10) -0.480868 (1,4,9) 0.785864 (1,5,10) 0.139335
(1,5,1): (1,4,1) -1.812299E-02 (1,5,2) 0.589041 (1,6,1) -0.335636
(1,5,2): (1,4,2) -0.119930 (1,5,1) -0.589041 (1,5,3) 1.45656 (1,6,2) -0.494871
(1,5,3): (1,4,3) -0.511641 (1,5,2) -1.45656 (1,5,4) 2.89498 (1,6,3) -0.645148
(1,5,4): (1,4,4) -1.69862 (1,5,3) -2.89498 (1,5,5) 4.60189 (1,6,4) 0.303489
(1,5,5): (1,4,5) -4.33118 (1,5,4) -4.60189 (1,5,6) 1.10021 (1,6,5) 8.16381
(1,5,6): (1,4,6) -4.75050 (1,5,5) -1.10021 (1,5,7) -1.05039 (1,6,6) 7.24962
(1,5,7): (1,4,7) -4.33053 (1,5,6) 1.05039 (1,5,8) -4.52263 (1,6,7) 8.15015
(1,5,8): (1,4,8) -1.69627 (1,5,7) 4.52263 (1,5,9) -2.74429 (1,6,8) 0.265280
(1,5,9): (1,4,9) -0.510537 (1,5,8) 2.74429 (1,5,10) -1.15931 (1,6,9) -0.734990
(1,5,10): (1,4,10) -0.139335 (1,5,9) 1.15931 (1,6,10) -0.686987
(1,6,1): (1,5,1) 0.335636 (1,6,2) 0.429663 (1,7,1) -0.646545
(1,6,2): (1,5,2) 0.494871 (1,6,1) -0.429663 (1,6,3) 1.30519 (1,7,2) -1.25616
(1,6,3): (1,5,3) 0.645148 (1,6,2) -1.30519 (1,6,4) 3.87037 (1,7,3) -3.10052
(1,6,4): (1,5,4) -0.303489 (1,6,3) -3.87037 (1,6,5) 12.7232 (1,7,4) -8.43722
(1,6,5): (1,5,5) -8.16381 (1,6,4) -12.7232 (1,6,6) 0.233467 (1,7,5) -25.8925
(1,6,6): (1,5,6) -7.24962 (1,6,5) -0.233467 (1,6,7) -0.196749 (1,7,6) -38.8450
(1,6,7): (1,5,7) -8.15015 (1,6,6) 0.196749 (1,6,8) -12.6668 (1,7,7) -25.9164
(1,6,8): (1,5,8) -0.265280 (1,6,7) 12.6668 (1,6,9) -3.77125 (1,7,8) -8.49901
(1,6,9): (1,5,9) 0.734990 (1,6,8) 3.77125 (1,6,10) -1.11115 (1,7,9) -3.25838
(1,6,10): (1,5,10) 0.686987 (1,6,9) 1.11115 (1,7,10) -1.65505
(1,7,1): (1,6,1) 0.646545 (1,7,2) -0.175360 (1,8,1) -0.493027
(1,7,2): (1,6,2) 1.25616 (1,7,1) 0.175360 (1,7,3) -0.510482 (1,8,2) -0.974410
(1,7,3): (1,6,3) 3.10052 (1,7,2) 0.510482 (1,7,4) -1.27053 (1,8,3) -2.43832
(1,7,4): (1,6,4) 8.43722 (1,7,3) 1.27053 (1,7,5) -3.24407 (1,8,4) -6.58460
(1,7,5): (1,6,5) 25.8925 (1,7,4) 3.24407 (1,7,6) -10.2580 (1,8,5) -18.9670
(1,7,6): (1,6,6) 38.8450 (1,7,5) 10.2580 (1,7,7) 10.2757 (1,8,6) -59.3960
(1,7,7): (1,6,7) 25.9164 (1,7,6) -10.2757 (1,7,8) 3.25841 (1,8,7) -18.9844
(1,7,8): (1,6,8) 8.49901 (1,7,7) -3.25841 (1,7,9) 1.27059 (1,8,8) -6.63068
(1,7,9): (1,6,9) 3.25838 (1,7,8) -1.27059 (1,7,10) 0.461976 (1,8,9) -2.55726
(1,7,10): (1,6,10) 1.65505 (1,7,9) -0.461976 (1,8,10) -1.27960
(1,8,1): (1,7,1) 0.493027 (1,8,2) -0.655211 (1,9,1) 1.682524E-02
(1,8,2): (1,7,2) 0.974410 (1,8,1) 0.655211 (1,8,3) -1.96753 (1,9,2) 0.128868
(1,8,3): (1,7,3) 2.43832 (1,8,2) 1.96753 (1,8,4) -5.36678 (1,9,3) 0.650241
(1,8,4): (1,7,4) 6.58460 (1,8,3) 5.36678 (1,8,5) -15.1738 (1,9,4) 2.82463
(1,8,5): (1,7,5) 18.9670 (1,8,4) 15.1738 (1,8,6) -46.0289 (1,9,5) 11.4998
(1,8,6): (1,7,6) 59.3960 (1,8,5) 46.0289 (1,8,7) 46.0317 (1,9,6) 47.4111
(1,8,7): (1,7,7) 18.9844 (1,8,6) -46.0317 (1,8,8) 15.1563 (1,9,7) 11.4987
(1,8,8): (1,7,8) 6.63068 (1,8,7) -15.1563 (1,8,9) 5.28987 (1,9,8) 2.82204
(1,8,9): (1,7,9) 2.55726 (1,8,8) -5.28987 (1,8,10) 1.72906 (1,9,9) 0.649453
(1,8,10): (1,7,10) 1.27960 (1,8,9) -1.72906 (1,9,10) 0.148765
(1,9,1): (1,8,1) -1.682524E-02 (1,9,2) -0.542571 (1,10,1) 0.348734
(1,9,2): (1,8,2) -0.128868 (1,9,1) 0.542571 (1,9,3) -1.43907 (1,10,2) 0.722305
(1,9,3): (1,8,3) -0.650241 (1,9,2) 1.43907 (1,9,4) -3.13322 (1,10,3) 1.87744
(1,9,4): (1,8,4) -2.82463 (1,9,3) 3.13322 (1,9,5) -6.14382 (1,10,4) 5.17413
(1,9,5): (1,8,5) -11.4998 (1,9,4) 6.14382 (1,9,6) -10.6153 (1,10,5) 15.1470
(1,9,6): (1,8,6) -47.4111 (1,9,5) 10.6153 (1,9,7) 10.6159 (1,10,6) 25.3418
(1,9,7): (1,8,7) -11.4987 (1,9,6) -10.6159 (1,9,8) 6.12637 (1,10,7) 15.1568
(1,9,8): (1,8,8) -2.82204 (1,9,7) -6.12637 (1,9,9) 3.05984 (1,10,8) 5.20339
(1,9,9): (1,8,9) -0.649453 (1,9,8) -3.05984 (1,9,10) 1.22277 (1,10,9) 1.95853
(1,9,10): (1,8,10) -0.148765 (1,9,9) -1.22277 (1,10,10) 0.942166
(1,10,1): (1,9,1) -0.348734 (1,10,2) -0.169672 (1,11,1) 0.320489
(1,10,2): (1,9,2) -0.722305 (1,10,1) 0.169672 (1,10,3) -0.288984 (1,11,2) 0.541671
(1,10,3): (1,9,3) -1.87744 (1,10,2) 0.288984 (1,10,4) 9.788475E-02 (1,11,3) 0.999263
(1,10,4): (1,9,4) -5.17413 (1,10,3) -9.788475E-02 (1,10,5) 3.13369 (1,11,4) 1.38742
(1,10,5): (1,9,5) -15.1470 (1,10,4) -3.13369 (1,10,6) -1.76983 (1,11,5) -0.672239
(1,10,6): (1,9,6) -25.3418 (1,10,5) 1.76983 (1,10,7) 1.77904 (1,11,6) 0.986398
(1,10,7): (1,9,7) -15.1568 (1,10,6) -1.77904 (1,10,8) -3.13065 (1,11,7) -0.661726
(1,10,8): (1,9,8) -5.20339 (1,10,7) 3.13065 (1,10,9) -0.117242 (1,11,8) 1.41878
(1,10,9): (1,9,9) -1.95853 (1,10,8) 0.117242 (1,10,10) 0.213882 (1,11,9) 1.07972
(1,10,10): (1,9,10) -0.942166 (1,10,9) -0.213882 (1,11,10) 0.732381
(1,11,1): (1,10,1) -0.320489 (1,11,2) 5.072055E-02 (1,12,1) 0.146847
(1,11,2): (1,10,2) -0.541671 (1,11,1) -5.072055E-02 (1,11,3) 0.165677 (1,12,2) 0.217244
(1,11,3): (1,10,3) -0.999263 (1,11,2) -0.165677 (1,11,4) 0.482641 (1,12,3) 0.310853
(1,11,4): (1,10,4) -1.38742 (1,11,3) -0.482641 (1,11,5) 1.04426 (1,12,4) 0.246023
(1,11,5): (1,10,5) 0.672239 (1,11,4) -1.04426 (1,11,6) -0.103214 (1,12,5) -0.301600
(1,11,6): (1,10,6) -0.986398 (1,11,5) 0.103214 (1,11,7) 0.122735 (1,12,6) -8.597044E-02
(1,11,7): (1,10,7) 0.661726 (1,11,6) -0.122735 (1,11,8) -1.02058 (1,12,7) -0.296439
(1,11,8): (1,10,8) -1.41878 (1,11,7) 1.02058 (1,11,9) -0.453139 (1,12,8) 0.261709
(1,11,9): (1,10,9) -1.07972 (1,11,8) 0.453139 (1,11,10) -0.130671 (1,12,9) 0.350002
(1,11,10): (1,10,10) -0.732381 (1,11,9) 0.130671 (1,12,10) 0.302630
(1,12,1): (1,11,1) -0.146847 (1,12,2) 0.121051 (1,13,1) -3.953081E-04
(1,12,2): (1,11,2) -0.217244 (1,12,1) -0.121051 (1,12,3) 0.259239 (1,13,2) -4.682452E-03
(1,12,3): (1,11,3) -0.310853 (1,12,2) -0.259239 (1,12,4) 0.417701 (1,13,3) -3.876207E-02
(1,12,4): (1,11,4) -0.246023 (1,12,3) -0.417701 (1,12,5) 0.493303 (1,13,4) -0.155362
(1,12,5): (1,11,5) 0.301600 (1,12,4) -0.493303 (1,12,6) 0.112125 (1,13,5) -0.364543
(1,12,6): (1,11,6) 8.597044E-02 (1,12,5) -0.112125 (1,12,7) -8.745701E-02 (1,13,6) -0.373952
(1,12,7): (1,11,7) 0.296439 (1,12,6) 8.745701E-02 (1,12,8) -0.459206 (1,13,7) -0.365152
(1,12,8): (1,11,8) -0.261709 (1,12,7) 0.459206 (1,12,9) -0.364755 (1,13,8) -0.155857
(1,12,9): (1,11,9) -0.350002 (1,12,8) 0.364755 (1,12,10) -0.177963 (1,13,9) -3.773642E-02
(1,12,10): (1,11,10) -0.302630 (1,12,9) 0.177963 (1,13,10) -1.306648E-03
(1,13,1): (1,12,1) 3.953081E-04 (1,13,2) 0.116759 (1,14,1) -6.235879E-02
(1,13,2): (1,12,2) 4.682452E-03 (1,13,1) -0.116759 (1,13,3) 0.225085 (1,14,2) -8.698296E-02
(1,13,3): (1,12,3) 3.876207E-02 (1,13,2) -0.225085 (1,13,4) 0.300803 (1,14,3) -0.143087
(1,13,4): (1,12,4) 0.155362 (1,13,3) -0.300803 (1,13,5) 0.283862 (1,14,4) -0.236092
(1,13,5): (1,12,5) 0.364543 (1,13,4) -0.283862 (1,13,6) 0.102740 (1,14,5) -0.340729
(1,13,6): (1,12,6) 0.373952 (1,13,5) -0.102740 (1,13,7) -7.868046E-02 (1,14,6) -0.370795
(1,13,7): (1,12,7) 0.365152 (1,13,6) 7.868046E-02 (1,13,8) -0.249722 (1,14,7) -0.344065
(1,13,8): (1,12,8) 0.155857 (1,13,7) 0.249722 (1,13,9) -0.246394 (1,14,8) -0.244137
(1,13,9): (1,12,9) 3.773642E-02 (1,13,8) 0.246394 (1,13,10) -0.141483 (1,14,9) -0.159005
(1,13,10): (1,12,10) 1.306648E-03 (1,13,9) 0.141483 (1,14,10) -0.116716
(1,14,1): (1,13,1) 6.235879E-02 (1,14,2) 9.212718E-02 (1,15,1) -5.038674E-02
(1,14,2): (1,13,2) 8.698296E-02 (1,14,1) -9.212718E-02 (1,14,3) 0.168936 (1,15,2) -6.792488E-02
(1,14,3): (1,13,3) 0.143087 (1,14,2) -0.168936 (1,14,4) 0.207740 (1,15,3) -0.103312
(1,14,4): (1,13,4) 0.236092 (1,14,3) -0.207740 (1,14,5) 0.179283 (1,15,4) -0.152837
(1,14,5): (1,13,5) 0.340729 (1,14,4) -0.179283 (1,14,6) 7.275150E-02 (1,15,5) -0.200424
(1,14,6): (1,13,6) 0.370795 (1,14,5) -7.275150E-02 (1,14,7) -5.202599E-02 (1,15,6) -0.217971
(1,14,7): (1,13,7) 0.344065 (1,14,6) 5.202599E-02 (1,14,8) -0.149885 (1,15,7) -0.203084
(1,14,8): (1,13,8) 0.244137 (1,14,7) 0.149885 (1,14,9) -0.161260 (1,15,8) -0.159404
(1,14,9): (1,13,9) 0.159005 (1,14,8) 0.161260 (1,14,10) -9.920189E-02 (1,15,9) -0.116519
(1,14,10): (1,13,10) 0.116716 (1,14,9) 9.920189E-02 (1,15,10) -9.230270E-02
(1,15,1): (1,14,1) 5.038674E-02 (1,15,2) 7.458485E-02
(1,15,2): (1,14,2) 6.792488E-02 (1,15,1) -7.458485E-02 (1,15,3) 0.133525
(1,15,3): (1,14,3) 0.103312 (1,15,2) -0.133525 (1,15,4) 0.158189
(1,15,4): (1,14,4) 0.152837 (1,15,3) -0.158189 (1,15,5) 0.131705
(1,15,5): (1,14,5) 0.200424 (1,15,4) -0.131705 (1,15,6) 5.522928E-02
(1,15,6): (1,14,6) 0.217971 (1,15,5) -5.522928E-02 (1,15,7) -3.716277E-02
(1,15,7): (1,14,7) 0.203084 (1,15,6) 3.716277E-02 (1,15,8) -0.106229
(1,15,8): (1,14,8) 0.159404 (1,15,7) 0.106229 (1,15,9) -0.118373
(1,15,9): (1,14,9) 0.116519 (1,15,8) 0.118373 (1,15,10) -7.498990E-02
(1,15,10): (1,14,10) 9.230270E-02 (1,15,9) 7.498990E-02

 WEL PACKAGE (WEL-1) FLOW RATES   PERIOD      2   STEP      100
 ----------------------------------------------------------------------------------------
   NUMBER   CELLID                    RATE       NAME                                    
 ----------------------------------------------------------------------------------------
     1      (1,8,6)              -198.97604      WEL                                     
 ----------------------------------------------------------------------------------------




 API PACKAGE (MAR) FLOW RATES   PERIOD      2   STEP      100
 -----------------------------------------------
   NUMBER   CELLID                    RATE      
 -----------------------------------------------
     1      (1,6,5)               46.666667     
     2      (1,6,6)               46.666667     
     3      (1,6,7)               46.666667     
     4      (1,10,5)              19.658681     
     5      (1,10,6)              19.658681     
     6      (1,10,7)              19.658681     
 -----------------------------------------------



1
  HEAD IN LAYER   1 AT END OF TIME STEP 100 IN STRESS PERIOD    2
  ---------------------------------------------------------------------------

            1           2           3           4           5           6           7           8           9          10
 ........................................................................................................................
   1   4.8741E-02  6.3178E-02  8.9708E-02  0.1222      0.1502      0.1618      0.1528      0.1288      0.1028      8.6651E-02
   2   6.1818E-02  8.2375E-02  0.1214      0.1715      0.2166      0.2352      0.2198      0.1796      0.1378      0.1128    
   3   8.3636E-02  0.1162      0.1812      0.2715      0.3600      0.3950      0.3641      0.2820      0.2031      0.1584    
   4   0.1039      0.1518      0.2553      0.4180      0.6032      0.6681      0.6079      0.4303      0.2819      0.2055    
   5   0.1057      0.1636      0.3050      0.5786      0.9971       1.096       1.002      0.5905      0.3314      0.2191    
   6   7.2438E-02  0.1149      0.2423      0.6072       1.695       1.715       1.698      0.6155      0.2602      0.1519    
   7   8.2482E-03 -9.2733E-03 -6.0369E-02 -0.1882     -0.5188      -1.601     -0.5171     -0.1852     -5.7363E-02 -1.1114E-02
   8  -4.1014E-02 -0.1068     -0.3057     -0.8593      -2.519      -8.672      -2.519     -0.8607     -0.3146     -0.1392    
   9  -3.9325E-02 -9.3796E-02 -0.2391     -0.5601      -1.211      -2.419      -1.211     -0.5617     -0.2480     -0.1242    
  10  -4.4358E-03 -2.1410E-02 -5.0371E-02 -4.0543E-02  0.2647      9.2326E-02  0.2656     -3.9338E-02 -5.1108E-02 -2.9657E-02
  11   2.7525E-02  3.2581E-02  4.9068E-02  9.6869E-02  0.1993      0.1891      0.2012      0.1011      5.6260E-02  4.3266E-02
  12   4.2148E-02  5.4188E-02  7.9906E-02  0.1212      0.1697      0.1807      0.1721      0.1270      9.0945E-02  7.3309E-02
  13   4.2109E-02  5.3722E-02  7.6061E-02  0.1058      0.1338      0.1440      0.1362      0.1116      8.7205E-02  7.3179E-02
  14   3.5899E-02  4.5071E-02  6.1860E-02  8.2464E-02  0.1002      0.1074      0.1023      8.7428E-02  7.1442E-02  6.1592E-02
  15   3.0878E-02  3.8308E-02  5.1592E-02  6.7306E-02  8.0371E-02  8.5847E-02  8.2162E-02  7.1626E-02  5.9873E-02  5.2419E-02

 HEAD WILL BE SAVED ON UNIT 1043 AT END OF TIME STEP  100, STRESS PERIOD    2


  VOLUME BUDGET FOR ENTIRE MODEL AT END OF TIME STEP  100, STRESS PERIOD   2
  ---------------------------------------------------------------------------------------------------

     CUMULATIVE VOLUME      L**3       RATES FOR THIS TIME STEP      L**3/T          PACKAGE NAME    
     ------------------                 ------------------------                     ----------------

           IN:                                      IN:
           ---                                      ---
              STO-SS =          28.5595                STO-SS =       1.1972E-02     STORAGE                          
              STO-SY =       66669.2253                STO-SY =          24.6921     STORAGE                          
                 WEL =           0.0000                   WEL =           0.0000     WEL-1                            
                 API =      219922.0104                   API =         198.9760     MAR                              
                 CHD =       2.8247E-08                   CHD =           0.0000     CHD_0                            

            TOTAL IN =      286619.7953              TOTAL IN =         223.6801

          OUT:                                     OUT:
          ----                                     ----
              STO-SS =          34.5385                STO-SS =       1.2698E-02     STORAGE                          
              STO-SY =       66663.2464                STO-SY =          24.6913     STORAGE                          
                 WEL =      219922.0104                   WEL =         198.9760     WEL-1                            
                 API =           0.0000                   API =           0.0000     MAR                              
                 CHD =       3.0388E-08                   CHD =           0.0000     CHD_0                            

           TOTAL OUT =      286619.7953             TOTAL OUT =         223.6801

            IN - OUT =       4.9933E-06              IN - OUT =       7.7852E-09

 PERCENT DISCREPANCY =           0.00     PERCENT DISCREPANCY =           0.00




         TIME SUMMARY AT END OF TIME STEP  100 IN STRESS PERIOD    2
                    SECONDS     MINUTES      HOURS       DAYS        YEARS
                    -----------------------------------------------------------
   TIME STEP LENGTH 8.64000E+05  14400.      240.00      10.000     2.73785E-02
 STRESS PERIOD TIME 8.64000E+07 1.44000E+06  24000.      1000.0      2.7379    
         TOTAL TIME 8.64864E+07 1.44144E+06  24024.      1001.0      2.7406    


end timestep

