                                   MODFLOW 6
                U.S. GEOLOGICAL SURVEY MODULAR HYDROLOGIC MODEL
                   VERSION 6.4.0 release candidate 07/06/2022
                               ***DEVELOP MODE***

   MODFLOW 6 compiled Jul 06 2022 19:38:41 with Intel(R) Fortran Intel(R) 64
   Compiler Classic for applications running on Intel(R) 64, Version 2021.6.0
                             Build 20220226_000000

This software is preliminary or provisional and is subject to 
revision. It is being provided to meet the need for timely best 
science. The software has not received final approval by the U.S. 
Geological Survey (USGS). No warranty, expressed or implied, is made 
by the USGS or the U.S. Government as to the functionality of the 
software and related material nor shall the fact of release 
constitute any such warranty. The software is provided on the 
condition that neither the USGS nor the U.S. Government shall be held 
liable for any damages resulting from the authorized or unauthorized 
use of the software.


As a work of the United States Government, this USGS product is 
in the public domain within the United States. You can copy, 
modify, distribute, and perform the work, even for commercial 
purposes, all without asking permission. Additionally, USGS 
waives copyright and related rights in the work worldwide 
through CC0 1.0 Universal Public Domain Dedication 
(https://creativecommons.org/publicdomain/zero/1.0/).

The following GNU Lesser General Public License (LGPL) libraries
are used in this USGS product:

    SPARSKIT version 2.0
      ilut, luson, and qsplit 
      (https://www-users.cse.umn.edu/~saad/software/SPARSKIT/)

    RCM - Reverse Cuthill McKee Ordering
      (https://people.math.sc.edu/Burkardt/f_src/rcm/rcm.html)

    BLAS - Basic Linear Algebra Subprograms Level 1
      (https://people.math.sc.edu/Burkardt/f_src/blas1_d/blas1_d.html)

    SPARSEKIT - Sparse Matrix Utility Package
      amux, dperm, dvperm, rperm, and cperm
      (https://people.sc.fsu.edu/~jburkardt/f77_src/sparsekit/sparsekit.html)

The following BSD-3 License libraries are used in this USGS product:

    Modern Fortran DAG Library
      Copyright (c) 2018, Jacob Williams
      All rights reserved.
      (https://github.com/jacobwilliams/daglib)

MODFLOW 6 compiler options: /Isrc\libmf6core.a.p /Isrc /I..\src
/Isrc\libmf6_external.a.p /MTd /nologo /warn:general /warn:truncated_source
/stand:f08 /Zi /traceback /O2 /Zi /fpe:0 /heap-arrays:0 /traceback /fpp
/Qdiag-disable:7416 /Qdiag-disable:7025 /Qdiag-disable:5268
/Fdsrc\libmf6core.a.p\Utilities_compilerversion.F90.pdb
/module:src\libmf6core.a.p
/Fosrc/libmf6core.a.p/Utilities_compilerversion.F90.obj /c

System command used to initiate simulation:
d:\Workspace\hugm0001\anaconda\python.exe -m ipykernel_launcher --ip=127.0.0.1 --stdin=9028 --control=9026 --hb=9025 "--Session.signature_scheme=\"hmac-sha256\"" "--Session.key=b\"ac3abf1b-359c-436c-aabe-969c9a216fc6\"" --shell=9027 "--transport=\"tcp\"" --iopub=9029 --f=c:\Users\hugm0001\AppData\Roaming\jupyter\runtime\kernel-v2-8744bFUieO8qOGpr.json

MODFLOW was compiled using uniform precision.

Real Variables
  KIND: 8
  TINY (smallest non-zero value):    2.225074-308
  HUGE (largest value):    1.797693+308
  PRECISION: 15
  BIT SIZE: 64

Integer Variables
  KIND: 4
  HUGE (largest value): 2147483647
  BIT SIZE: 32

Long Integer Variables
  KIND: 8
  HUGE (largest value): 9223372036854775807
  BIT SIZE: 64

Logical Variables
  KIND: 4
  BIT SIZE: 32
 

 OPENED mfsim.nam
 FILE TYPE:NAM   UNIT 1080   STATUS:OLD                 
 FORMAT:FORMATTED              ACCESS:SEQUENTIAL          
 ACTION:READ                

 # File generated by Flopy version 3.3.6 on 07/16/2022 at 15:08:32.

 READING SIMULATION OPTIONS
    SIMULATION WILL CONTINUE EVEN IF THERE IS NONCONVERGENCE.
 END OF SIMULATION OPTIONS

 READING SIMULATION TIMING

 OPENED model.tdis
 FILE TYPE:TDIS   UNIT 1081   STATUS:OLD                 
 FORMAT:FORMATTED              ACCESS:SEQUENTIAL          
 ACTION:READ                


 TDIS -- TEMPORAL DISCRETIZATION PACKAGE,
 VERSION 1 : 11/13/2014 - INPUT READ FROM UNIT 1081
 # File generated by Flopy version 3.3.6 on 07/16/2022 at 15:08:32.
 PROCESSING TDIS OPTIONS
    SIMULATION TIME UNIT IS DAYS
 END OF TDIS OPTIONS
 PROCESSING TDIS DIMENSIONS
    2 STRESS PERIOD(S) IN SIMULATION
 END OF TDIS DIMENSIONS
 PROCESSING TDIS PERIODDATA


 STRESS PERIOD     LENGTH       TIME STEPS     MULTIPLIER FOR DELT
 ----------------------------------------------------------------------------
        1         1.000000          1                    1.000
        2         1000.000        100                    1.000
 END OF TDIS PERIODDATA
 END OF SIMULATION TIMING

 READING SIMULATION MODELS
    GWF6 model GWF will be created as model 1
 END OF SIMULATION MODELS

 READING SIMULATION EXCHANGES
 END OF SIMULATION EXCHANGES

 READING SOLUTIONGROUP

 Creating solution: SLN_1           

 OPENED model.ims
 FILE TYPE:IMS   UNIT 1093   STATUS:OLD                 
 FORMAT:FORMATTED              ACCESS:SEQUENTIAL          
 ACTION:READ                

 END OF SIMULATION SOLUTIONGROUP

PROCESSING MODEL CONNECTIONS

 IMS -- ITERATIVE MODEL SOLUTION PACKAGE, VERSION 6, 4/28/2017
         INPUT READ FROM UNIT 1093
 # File generated by Flopy version 3.3.6 on 07/16/2022 at 15:08:32.

 PROCESSING IMS OPTIONS
 END OF IMS OPTIONS

 PROCESSING IMS NONLINEAR
 END OF IMS NONLINEAR DATA
 ***UNDER-RELAXATION WILL NOT BE USED***
 
 ***IMS LINEAR SOLVER WILL BE USED***

 IMSLINEAR -- UNSTRUCTURED LINEAR SOLUTION PACKAGE, VERSION 8, 04/28/2017

 PROCESSING LINEAR DATA
 END OF LINEAR DATA
 
 An asymmetric matrix will be solved

 OUTER ITERATION CONVERGENCE CRITERION    (DVCLOSE) =    0.100000E-08
 MAXIMUM NUMBER OF OUTER ITERATIONS        (MXITER) = 500
 SOLVER PRINTOUT INDEX                     (IPRIMS) = 1
 NONLINEAR ITERATION METHOD            (NONLINMETH) = 0
 LINEAR SOLUTION METHOD                   (LINMETH) = 1

       SOLUTION BY THE BICONJUGATE-GRADIENT STABILIZED METHOD
 ------------------------------------------------------------------
 MAXIMUM OF 500 CALLS OF SOLUTION ROUTINE
 MAXIMUM OF 100 INTERNAL ITERATIONS PER CALL TO SOLUTION ROUTINE
 LINEAR ACCELERATION METHOD            = BCGS      
 MATRIX PRECONDITIONING TYPE           = INCOMPLETE LU       
 MATRIX SCALING APPROACH               = NO SCALING          
 MATRIX REORDERING APPROACH            = ORIGINAL ORDERING        
 NUMBER OF ORTHOGONALIZATIONS          = 0
 HEAD CHANGE CRITERION FOR CLOSURE     =    0.10000E-08
 RESIDUAL CHANGE CRITERION FOR CLOSURE =    0.10000E-05
 RESIDUAL CONVERGENCE OPTION           = 1
 RESIDUAL CONVERGENCE NORM             = INFINITY NORM S 
 RELAXATION FACTOR                     =    0.00000E+00



 
    Solving:  Stress period:     1    Time step:     1
 
1
                            STRESS PERIOD NO. 1, LENGTH =   1.000000    
                            -----------------------------------------------
                            NUMBER OF TIME STEPS = 1
                            MULTIPLIER FOR DELT =     1.000
                            INITIAL TIME STEP SIZE =   1.000000    



 PSEUDO-TRANSIENT CONTINUATION WILL BE APPLIED TO MODEL 1 ("GWF") DURING THIS TIME STEP

 SLN_1 OUTER ITERATION SUMMARY
 ----------------------------------------------------------------------------------------------------------
                                OUTER      INNER                    STEP   MAXIMUM CHANGE MODEL-(CELLID) OR
 OUTER ITERATION STEP       ITERATION  ITERATION  MAXIMUM CHANGE SUCCESS             MODEL-PACKAGE-(NUMBER)
 ----------------------------------------------------------------------------------------------------------
 Model                              1          9     -0.59075914                             1_GWF-(1,12,9)
 Model                              2         11     -0.49413834                              1_GWF-(1,2,6)
 Model                              3         11     -0.27643852                              1_GWF-(1,1,5)
 Model                              4         11 -4.79263874E-02                             1_GWF-(1,11,6)
 Model                              5          9 -1.22160542E-03                             1_GWF-(1,15,6)
 Model                              6          5 -7.69201719E-07                             1_GWF-(1,13,5)
 Model                              7          1 -4.29866954E-11       *                      1_GWF-(1,2,5)
 ----------------------------------------------------------------------------------------------------------


 7 CALLS TO NUMERICAL SOLUTION IN TIME STEP 1 STRESS PERIOD 1
 57 TOTAL ITERATIONS
 
    Solving:  Stress period:     2    Time step:     1
 
1
                            STRESS PERIOD NO. 2, LENGTH =   1000.000    
                            -----------------------------------------------
                            NUMBER OF TIME STEPS = 100
                            MULTIPLIER FOR DELT =     1.000
                            INITIAL TIME STEP SIZE =   10.00000    

 SLN_1 OUTER ITERATION SUMMARY
 ----------------------------------------------------------------------------------------------------------
                                OUTER      INNER                    STEP   MAXIMUM CHANGE MODEL-(CELLID) OR
 OUTER ITERATION STEP       ITERATION  ITERATION  MAXIMUM CHANGE SUCCESS             MODEL-PACKAGE-(NUMBER)
 ----------------------------------------------------------------------------------------------------------
 Model                              1          3      -1.1324574                              1_GWF-(1,8,6)
 Model                              2          3 -8.54552845E-04                              1_GWF-(1,8,6)
 Model                              3          2  2.93890512E-09                              1_GWF-(1,8,6)
 Model                              4          1  1.32258787E-13       *                      1_GWF-(1,7,7)
 ----------------------------------------------------------------------------------------------------------


 4 CALLS TO NUMERICAL SOLUTION IN TIME STEP 1 STRESS PERIOD 2
 9 TOTAL ITERATIONS
 
    Solving:  Stress period:     2    Time step:     2
 

 SLN_1 OUTER ITERATION SUMMARY
 ----------------------------------------------------------------------------------------------------------
                                OUTER      INNER                    STEP   MAXIMUM CHANGE MODEL-(CELLID) OR
 OUTER ITERATION STEP       ITERATION  ITERATION  MAXIMUM CHANGE SUCCESS             MODEL-PACKAGE-(NUMBER)
 ----------------------------------------------------------------------------------------------------------
 Model                              1          3     -0.95907134                              1_GWF-(1,8,6)
 Model                              2          3 -1.82087512E-03                              1_GWF-(1,6,5)
 Model                              3          2 -5.50016540E-08                              1_GWF-(1,6,5)
 Model                              4          1 -2.16623594E-16       *                      1_GWF-(1,5,8)
 ----------------------------------------------------------------------------------------------------------


 4 CALLS TO NUMERICAL SOLUTION IN TIME STEP 2 STRESS PERIOD 2
 9 TOTAL ITERATIONS
 
    Solving:  Stress period:     2    Time step:     3
 

 SLN_1 OUTER ITERATION SUMMARY
 ----------------------------------------------------------------------------------------------------------
                                OUTER      INNER                    STEP   MAXIMUM CHANGE MODEL-(CELLID) OR
 OUTER ITERATION STEP       ITERATION  ITERATION  MAXIMUM CHANGE SUCCESS             MODEL-PACKAGE-(NUMBER)
 ----------------------------------------------------------------------------------------------------------
 Model                              1          3     -0.81986921                              1_GWF-(1,8,6)
 Model                              2          3 -1.29457688E-03                              1_GWF-(1,6,5)
 Model                              3          2 -2.71636531E-08                              1_GWF-(1,6,5)
 Model                              4          1 -2.34257058E-14       *                      1_GWF-(1,7,6)
 ----------------------------------------------------------------------------------------------------------


 4 CALLS TO NUMERICAL SOLUTION IN TIME STEP 3 STRESS PERIOD 2
 9 TOTAL ITERATIONS
 
    Solving:  Stress period:     2    Time step:     4
 

 SLN_1 OUTER ITERATION SUMMARY
 ----------------------------------------------------------------------------------------------------------
                                OUTER      INNER                    STEP   MAXIMUM CHANGE MODEL-(CELLID) OR
 OUTER ITERATION STEP       ITERATION  ITERATION  MAXIMUM CHANGE SUCCESS             MODEL-PACKAGE-(NUMBER)
 ----------------------------------------------------------------------------------------------------------
 Model                              1          3     -0.70750338                              1_GWF-(1,8,6)
 Model                              2          3 -7.74031571E-02                              1_GWF-(1,6,6)
 Model                              3          3  3.59826380E-02                             1_GWF-(1,10,6)
 Model                              4          3 -9.69077901E-03                              1_GWF-(1,6,5)
 Model                              5          2 -1.04391462E-06                              1_GWF-(1,6,5)
 Model                              6          1 -2.03287907E-20       *                      1_GWF-(1,9,2)
 Model                              7          3  1.52739895E-02                             1_GWF-(1,10,6)
 Model                              8          3  9.72161380E-03                             1_GWF-(1,10,6)
 Model                              9          2 -1.02867894E-06                             1_GWF-(1,10,5)
 Model                             10          1 -2.30394616E-20       *                     1_GWF-(1,13,2)
 Model                             11          3  6.19067907E-03                             1_GWF-(1,10,6)
 Model                             12          3  3.94129344E-03                             1_GWF-(1,10,6)
 Model                             13          2 -1.68999377E-07                             1_GWF-(1,10,7)
 Model                             14          1 -1.85288457E-21       *                     1_GWF-(1,12,3)
 Model                             15          3  2.50972377E-03                             1_GWF-(1,10,6)
 Model                             16          3  1.59798537E-03                             1_GWF-(1,10,6)
 Model                             17          2 -2.77763123E-08                             1_GWF-(1,10,7)
 Model                             18          1 -4.59788457E-15       *                      1_GWF-(1,9,8)
 Model                             19          3  1.01754774E-03                             1_GWF-(1,10,6)
 Model                             20          3  6.47918632E-04                             1_GWF-(1,10,6)
 Model                             21          2 -4.56637883E-09                             1_GWF-(1,10,7)
 Model                             22          1 -7.22076045E-13       *                      1_GWF-(1,9,8)
 Model                             23          3  4.12572599E-04                             1_GWF-(1,10,6)
 Model                             24          3  2.62708228E-04                             1_GWF-(1,10,6)
 Model                             25          1 -7.49756007E-10       *                     1_GWF-(1,10,7)
 Model                             26          3  1.67283358E-04                             1_GWF-(1,10,6)
 Model                             27          2  1.06519502E-04                             1_GWF-(1,10,6)
 Model                             28          1 -1.18289448E-10       *                     1_GWF-(1,10,7)
 Model                             29          2  6.78278142E-05                             1_GWF-(1,10,6)
 Model                             30          2  4.31902267E-05                             1_GWF-(1,10,6)
 Model                             31          1 -1.00668224E-11       *                     1_GWF-(1,10,7)
 Model                             32          2  2.75019787E-05                             1_GWF-(1,10,6)
 Model                             33          2  1.75122605E-05                             1_GWF-(1,10,6)
 Model                             34          1 -1.06817333E-13       *                     1_GWF-(1,10,7)
 Model                             35          2  1.11511752E-05                             1_GWF-(1,10,6)
 Model                             36          2  7.10066598E-06                             1_GWF-(1,10,6)
 Model                             37          1 -5.13478149E-16       *                     1_GWF-(1,10,7)
 Model                             38          2  4.52144809E-06                             1_GWF-(1,10,6)
 Model                             39          2  2.87909520E-06                             1_GWF-(1,10,6)
 Model                             40          1  1.95156391E-18       *                     1_GWF-(1,11,6)
 Model                             41          2  1.83330405E-06                             1_GWF-(1,10,6)
 Model                             42          2  1.16738193E-06                             1_GWF-(1,10,6)
 Model                             43          1  3.38813179E-20       *                     1_GWF-(1,7,10)
 Model                             44          2  7.43346800E-07                             1_GWF-(1,10,6)
 Model                             45          2  4.73336440E-07                             1_GWF-(1,10,6)
 Model                             46          1  8.47032947E-21       *                     1_GWF-(1,12,4)
 Model                             47          2  3.01403601E-07                             1_GWF-(1,10,6)
 Model                             48          2  1.91922975E-07                             1_GWF-(1,10,6)
 Model                             49          1  2.71050543E-20       *                     1_GWF-(1,11,4)
 Model                             50          2  1.22209609E-07                             1_GWF-(1,10,6)
 Model                             51          2  7.78186926E-08                             1_GWF-(1,10,6)
 Model                             52          1  1.73472348E-18       *                     1_GWF-(1,11,6)
 Model                             53          2  4.95521367E-08                             1_GWF-(1,10,6)
 Model                             54          2  3.15529301E-08                             1_GWF-(1,10,6)
 Model                             55          1  3.66373598E-15       *                      1_GWF-(1,9,7)
 Model                             56          2  2.00916254E-08                             1_GWF-(1,10,6)
 Model                             57          2  1.27934782E-08                             1_GWF-(1,10,6)
 Model                             58          1  6.47218390E-13       *                      1_GWF-(1,9,7)
 Model                             59          2  8.14650161E-09                             1_GWF-(1,10,6)
 Model                             60          2  5.18764988E-09                             1_GWF-(1,10,6)
 Model                             61          1  9.07350584E-13       *                      1_GWF-(1,9,7)
 Model                             62          2  3.30329790E-09                             1_GWF-(1,10,6)
 Model                             63          2  2.10355891E-09                             1_GWF-(1,10,6)
 Model                             64          1  1.91104077E-13       *                      1_GWF-(1,9,7)
 Model                             65          2  1.33940076E-09                             1_GWF-(1,10,6)
 Model                             66          1  8.52002198E-10       *                     1_GWF-(1,10,6)
 ----------------------------------------------------------------------------------------------------------


 66 CALLS TO NUMERICAL SOLUTION IN TIME STEP 4 STRESS PERIOD 2
 127 TOTAL ITERATIONS
 
    Solving:  Stress period:     2    Time step:     5
 

 SLN_1 OUTER ITERATION SUMMARY
 ----------------------------------------------------------------------------------------------------------
                                OUTER      INNER                    STEP   MAXIMUM CHANGE MODEL-(CELLID) OR
 OUTER ITERATION STEP       ITERATION  ITERATION  MAXIMUM CHANGE SUCCESS             MODEL-PACKAGE-(NUMBER)
 ----------------------------------------------------------------------------------------------------------
 Model                              1          3     -0.61699658                              1_GWF-(1,8,6)
 Model                              2          3     -0.20647807                              1_GWF-(1,6,7)
 Model                              3          2 -1.23378263E-04                             1_GWF-(1,10,5)
 Model                              4          1 -2.51416638E-10       *                     1_GWF-(1,10,7)
 Model                              5          3      0.10504130                             1_GWF-(1,10,6)
 Model                              6          3  3.48709563E-02                             1_GWF-(1,10,6)
 Model                              7          3 -1.54345674E-02                              1_GWF-(1,6,5)
 Model                              8          2 -2.64969073E-06                              1_GWF-(1,6,5)
 Model                              9          1 -3.60836036E-19       *                     1_GWF-(1,3,10)
 Model                             10          3  1.68496710E-02                             1_GWF-(1,10,6)
 Model                             11          3  1.07238124E-02                             1_GWF-(1,10,6)
 Model                             12          2 -1.23574605E-06                             1_GWF-(1,10,5)
 Model                             13          1 -3.13402190E-20       *                     1_GWF-(1,13,4)
 Model                             14          3  6.82874940E-03                             1_GWF-(1,10,6)
 Model                             15          3  4.34734694E-03                             1_GWF-(1,10,6)
 Model                             16          2 -2.02986184E-07                             1_GWF-(1,10,5)
 Model                             17          1  6.80935080E-21       *                     1_GWF-(1,15,4)
 Model                             18          3  2.76823039E-03                             1_GWF-(1,10,6)
 Model                             19          3  1.76252825E-03                             1_GWF-(1,10,6)
 Model                             20          2 -3.33583001E-08                             1_GWF-(1,10,7)
 Model                             21          1  8.88178420E-16       *                      1_GWF-(1,8,6)
 Model                             22          3  1.12229844E-03                             1_GWF-(1,10,6)
 Model                             23          3  7.14599594E-04                             1_GWF-(1,10,6)
 Model                             24          2 -5.48344425E-09                             1_GWF-(1,10,7)
 Model                             25          1 -8.67860471E-13       *                     1_GWF-(1,11,4)
 Model                             26          3  4.55022367E-04                             1_GWF-(1,10,6)
 Model                             27          3  2.89731346E-04                             1_GWF-(1,10,6)
 Model                             28          1 -9.00654051E-10       *                     1_GWF-(1,10,7)
 Model                             29          3  1.84486475E-04                             1_GWF-(1,10,6)
 Model                             30          2  1.17470996E-04                             1_GWF-(1,10,6)
 Model                             31          1 -1.43899059E-10       *                     1_GWF-(1,10,7)
 Model                             32          2  7.47996054E-05                             1_GWF-(1,10,6)
 Model                             33          2  4.76284899E-05                             1_GWF-(1,10,6)
 Model                             34          1 -1.40975565E-11       *                     1_GWF-(1,10,7)
 Model                             35          2  3.03274027E-05                             1_GWF-(1,10,6)
 Model                             36          2  1.93109382E-05                             1_GWF-(1,10,6)
 Model                             37          1 -1.86684002E-13       *                     1_GWF-(1,10,7)
 Model                             38          2  1.22962229E-05                             1_GWF-(1,10,6)
 Model                             39          2  7.82960938E-06                             1_GWF-(1,10,6)
 Model                             40          1 -9.43689571E-16       *                     1_GWF-(1,10,7)
 Model                             41          2  4.98549732E-06                             1_GWF-(1,10,6)
 Model                             42          2  3.17451138E-06                             1_GWF-(1,10,6)
 Model                             43          1  3.46944695E-18       *                     1_GWF-(1,11,7)
 Model                             44          2  2.02136757E-06                             1_GWF-(1,10,6)
 Model                             45          2  1.28710418E-06                             1_GWF-(1,10,6)
 Model                             46          1 -2.71050543E-20       *                      1_GWF-(1,3,8)
 Model                             47          2  8.19562574E-07                             1_GWF-(1,10,6)
 Model                             48          2  5.21855802E-07                             1_GWF-(1,10,6)
 Model                             49          1  1.35525272E-20       *                     1_GWF-(1,9,10)
 Model                             50          2  3.32291284E-07                             1_GWF-(1,10,6)
 Model                             51          2  2.11586240E-07                             1_GWF-(1,10,6)
 Model                             52          1  1.35525272E-20       *                     1_GWF-(1,12,4)
 Model                             53          2  1.34727383E-07                             1_GWF-(1,10,6)
 Model                             54          2  8.57875164E-08                             1_GWF-(1,10,6)
 Model                             55          1  6.50521303E-19       *                     1_GWF-(1,11,4)
 Model                             56          2  5.46251391E-08                             1_GWF-(1,10,6)
 Model                             57          2  3.47824529E-08                             1_GWF-(1,10,6)
 Model                             58          1  1.26287869E-15       *                     1_GWF-(1,11,5)
 Model                             59          2  2.21475442E-08                             1_GWF-(1,10,6)
 Model                             60          2  1.41022494E-08                             1_GWF-(1,10,6)
 Model                             61          1  4.44633913E-13       *                     1_GWF-(1,11,5)
 Model                             62          2  8.97965019E-09                             1_GWF-(1,10,6)
 Model                             63          2  5.71805459E-09                             1_GWF-(1,10,6)
 Model                             64          1  1.03106065E-12       *                     1_GWF-(1,11,5)
 Model                             65          2  3.64092978E-09                             1_GWF-(1,10,6)
 Model                             66          2  2.31851244E-09                             1_GWF-(1,10,6)
 Model                             67          1  2.67827427E-13       *                     1_GWF-(1,11,5)
 Model                             68          2  1.47625062E-09                             1_GWF-(1,10,6)
 Model                             69          1  9.39276712E-10       *                     1_GWF-(1,10,6)
 ----------------------------------------------------------------------------------------------------------


 69 CALLS TO NUMERICAL SOLUTION IN TIME STEP 5 STRESS PERIOD 2
 133 TOTAL ITERATIONS
 
    Solving:  Stress period:     2    Time step:     6
 

 SLN_1 OUTER ITERATION SUMMARY
 ----------------------------------------------------------------------------------------------------------
                                OUTER      INNER                    STEP   MAXIMUM CHANGE MODEL-(CELLID) OR
 OUTER ITERATION STEP       ITERATION  ITERATION  MAXIMUM CHANGE SUCCESS             MODEL-PACKAGE-(NUMBER)
 ----------------------------------------------------------------------------------------------------------
 Model                              1          3     -0.54233600                              1_GWF-(1,8,6)
 Model                              2          3     -0.20085939                              1_GWF-(1,6,7)
 Model                              3          2 -1.18521687E-04                             1_GWF-(1,10,5)
 Model                              4          1 -2.29557262E-10       *                     1_GWF-(1,10,7)
 Model                              5          3      0.10229009                             1_GWF-(1,10,6)
 Model                              6          3  3.39628080E-02                             1_GWF-(1,10,6)
 Model                              7          3 -1.74861980E-02                              1_GWF-(1,6,5)
 Model                              8          2 -3.40223670E-06                              1_GWF-(1,6,5)
 Model                              9          1 -1.73472348E-18       *                      1_GWF-(1,7,4)
 Model                             10          3  1.72084387E-02                             1_GWF-(1,10,6)
 Model                             11          3  1.09519341E-02                             1_GWF-(1,10,6)
 Model                             12          2 -1.27562562E-06                             1_GWF-(1,10,5)
 Model                             13          1 -5.42101086E-20       *                      1_GWF-(1,3,8)
 Model                             14          3  6.97392962E-03                             1_GWF-(1,10,6)
 Model                             15          3  4.43970310E-03                             1_GWF-(1,10,6)
 Model                             16          2 -2.09524181E-07                             1_GWF-(1,10,5)
 Model                             17          1  1.35525272E-20       *                     1_GWF-(1,10,2)
 Model                             18          3  2.82700381E-03                             1_GWF-(1,10,6)
 Model                             19          3  1.79992399E-03                             1_GWF-(1,10,6)
 Model                             20          2 -3.44308292E-08                             1_GWF-(1,10,7)
 Model                             21          1 -4.44956572E-16       *                     1_GWF-(1,11,4)
 Model                             22          3  1.14609568E-03                             1_GWF-(1,10,6)
 Model                             23          3  7.29742219E-04                             1_GWF-(1,10,6)
 Model                             24          2 -5.65944291E-09                             1_GWF-(1,10,7)
 Model                             25          1 -9.02954794E-13       *                     1_GWF-(1,11,4)
 Model                             26          3  4.64658465E-04                             1_GWF-(1,10,6)
 Model                             27          3  2.95863160E-04                             1_GWF-(1,10,6)
 Model                             28          1 -9.29595290E-10       *                     1_GWF-(1,10,7)
 Model                             29          3  1.88388474E-04                             1_GWF-(1,10,6)
 Model                             30          3  1.19954016E-04                             1_GWF-(1,10,6)
 Model                             31          1 -1.48844270E-10       *                     1_GWF-(1,10,7)
 Model                             32          2  7.63796784E-05                             1_GWF-(1,10,6)
 Model                             33          2  4.86339667E-05                             1_GWF-(1,10,6)
 Model                             34          1 -1.49930068E-11       *                     1_GWF-(1,10,7)
 Model                             35          2  3.09672385E-05                             1_GWF-(1,10,6)
 Model                             36          2  1.97180971E-05                             1_GWF-(1,10,6)
 Model                             37          1 -2.09832152E-13       *                     1_GWF-(1,10,7)
 Model                             38          2  1.25553184E-05                             1_GWF-(1,10,6)
 Model                             39          2  7.99448467E-06                             1_GWF-(1,10,6)
 Model                             40          1 -9.99200722E-16       *                     1_GWF-(1,10,7)
 Model                             41          2  5.09041552E-06                             1_GWF-(1,10,6)
 Model                             42          2  3.24127601E-06                             1_GWF-(1,10,6)
 Model                             43          1  6.93889390E-18       *                     1_GWF-(1,11,6)
 Model                             44          2  2.06385315E-06                             1_GWF-(1,10,6)
 Model                             45          2  1.31413983E-06                             1_GWF-(1,10,6)
 Model                             46          1  2.16840434E-19       *                      1_GWF-(1,7,9)
 Model                             47          2  8.36766684E-07                             1_GWF-(1,10,6)
 Model                             48          2  5.32803563E-07                             1_GWF-(1,10,6)
 Model                             49          1  1.50348348E-20       *                     1_GWF-(1,13,2)
 Model                             50          2  3.39257890E-07                             1_GWF-(1,10,6)
 Model                             51          2  2.16019426E-07                             1_GWF-(1,10,6)
 Model                             52          1  1.35525272E-20       *                     1_GWF-(1,12,3)
 Model                             53          2  1.37548400E-07                             1_GWF-(1,10,6)
 Model                             54          2  8.75827042E-08                             1_GWF-(1,10,6)
 Model                             55          1  1.08420217E-19       *                     1_GWF-(1,12,4)
 Model                             56          2  5.57674696E-08                             1_GWF-(1,10,6)
 Model                             57          2  3.55093884E-08                             1_GWF-(1,10,6)
 Model                             58          1  8.46545056E-16       *                     1_GWF-(1,11,5)
 Model                             59          2  2.26101292E-08                             1_GWF-(1,10,6)
 Model                             60          2  1.43966042E-08                             1_GWF-(1,10,6)
 Model                             61          1  3.74533737E-13       *                     1_GWF-(1,11,5)
 Model                             62          2  9.16689513E-09                             1_GWF-(1,10,6)
 Model                             63          2  5.83721327E-09                             1_GWF-(1,10,6)
 Model                             64          1  1.08508341E-12       *                     1_GWF-(1,11,5)
 Model                             65          2  3.71675923E-09                             1_GWF-(1,10,6)
 Model                             66          2  2.36682907E-09                             1_GWF-(1,10,6)
 Model                             67          1  3.08010562E-13       *                     1_GWF-(1,11,5)
 Model                             68          2  1.50705781E-09                             1_GWF-(1,10,6)
 Model                             69          1  9.58809476E-10       *                     1_GWF-(1,10,6)
 ----------------------------------------------------------------------------------------------------------


 69 CALLS TO NUMERICAL SOLUTION IN TIME STEP 6 STRESS PERIOD 2
 134 TOTAL ITERATIONS
 
    Solving:  Stress period:     2    Time step:     7
 

 SLN_1 OUTER ITERATION SUMMARY
 ----------------------------------------------------------------------------------------------------------
                                OUTER      INNER                    STEP   MAXIMUM CHANGE MODEL-(CELLID) OR
 OUTER ITERATION STEP       ITERATION  ITERATION  MAXIMUM CHANGE SUCCESS             MODEL-PACKAGE-(NUMBER)
 ----------------------------------------------------------------------------------------------------------
 Model                              1          3     -0.48061543                              1_GWF-(1,8,6)
 Model                              2          3     -0.20000219                              1_GWF-(1,6,7)
 Model                              3          2 -1.14230720E-04                             1_GWF-(1,10,5)
 Model                              4          1 -2.11189399E-10       *                     1_GWF-(1,10,7)
 Model                              5          3      0.10124812                             1_GWF-(1,10,6)
 Model                              6          3  3.36192907E-02                             1_GWF-(1,10,6)
 Model                              7          3 -1.67251992E-02                              1_GWF-(1,6,5)
 Model                              8          2 -3.11323808E-06                              1_GWF-(1,6,5)
 Model                              9          1  3.46944695E-18       *                      1_GWF-(1,7,7)
 Model                             10          3  1.68156138E-02                             1_GWF-(1,10,6)
 Model                             11          3  1.07020265E-02                             1_GWF-(1,10,6)
 Model                             12          2 -1.20792928E-06                             1_GWF-(1,10,5)
 Model                             13          1 -2.71050543E-20       *                      1_GWF-(1,9,2)
 Model                             14          3  6.81474745E-03                             1_GWF-(1,10,6)
 Model                             15          3  4.33836743E-03                             1_GWF-(1,10,6)
 Model                             16          2 -1.98405371E-07                             1_GWF-(1,10,7)
 Model                             17          1 -1.35525272E-20       *                     1_GWF-(1,12,3)
 Model                             18          3  2.76246119E-03                             1_GWF-(1,10,6)
 Model                             19          3  1.75882502E-03                             1_GWF-(1,10,6)
 Model                             20          2 -3.26033007E-08                             1_GWF-(1,10,7)
 Model                             21          1 -5.62050406E-16       *                     1_GWF-(1,11,4)
 Model                             22          3  1.11991971E-03                             1_GWF-(1,10,6)
 Model                             23          3  7.13072274E-04                             1_GWF-(1,10,6)
 Model                             24          2 -5.35897360E-09                             1_GWF-(1,10,7)
 Model                             25          1 -8.99252894E-13       *                     1_GWF-(1,11,4)
 Model                             26          3  4.54041485E-04                             1_GWF-(1,10,6)
 Model                             27          3  2.89101530E-04                             1_GWF-(1,10,6)
 Model                             28          1 -8.80163942E-10       *                     1_GWF-(1,10,7)
 Model                             29          3  1.84082055E-04                             1_GWF-(1,10,6)
 Model                             30          3  1.17211340E-04                             1_GWF-(1,10,6)
 Model                             31          1 -1.40595091E-10       *                     1_GWF-(1,10,7)
 Model                             32          2  7.46328980E-05                             1_GWF-(1,10,6)
 Model                             33          2  4.75214681E-05                             1_GWF-(1,10,6)
 Model                             34          1 -1.37707623E-11       *                     1_GWF-(1,10,7)
 Model                             35          2  3.02587007E-05                             1_GWF-(1,10,6)
 Model                             36          2  1.92668385E-05                             1_GWF-(1,10,6)
 Model                             37          1 -1.83075777E-13       *                     1_GWF-(1,10,7)
 Model                             38          2  1.22679172E-05                             1_GWF-(1,10,6)
 Model                             39          2  7.81144221E-06                             1_GWF-(1,10,6)
 Model                             40          1 -8.88178420E-16       *                     1_GWF-(1,10,7)
 Model                             41          2  4.97383798E-06                             1_GWF-(1,10,6)
 Model                             42          2  3.16702915E-06                             1_GWF-(1,10,6)
 Model                             43          1  1.73472348E-18       *                     1_GWF-(1,11,4)
 Model                             44          2  2.01656622E-06                             1_GWF-(1,10,6)
 Model                             45          2  1.28402331E-06                             1_GWF-(1,10,6)
 Model                             46          1  5.42101086E-20       *                     1_GWF-(1,13,3)
 Model                             47          2  8.17585822E-07                             1_GWF-(1,10,6)
 Model                             48          2  5.20587600E-07                             1_GWF-(1,10,6)
 Model                             49          1 -1.35525272E-20       *                     1_GWF-(1,3,10)
 Model                             50          2  3.31477636E-07                             1_GWF-(1,10,6)
 Model                             51          2  2.11064196E-07                             1_GWF-(1,10,6)
 Model                             52          1  1.35525272E-20       *                     1_GWF-(1,13,4)
 Model                             53          2  1.34392570E-07                             1_GWF-(1,10,6)
 Model                             54          2  8.55727461E-08                             1_GWF-(1,10,6)
 Model                             55          1  2.16840434E-19       *                     1_GWF-(1,12,4)
 Model                             56          2  5.44873863E-08                             1_GWF-(1,10,6)
 Model                             57          2  3.46941209E-08                             1_GWF-(1,10,6)
 Model                             58          1  8.46545056E-16       *                     1_GWF-(1,11,5)
 Model                             59          2  2.20908749E-08                             1_GWF-(1,10,6)
 Model                             60          2  1.40659108E-08                             1_GWF-(1,10,6)
 Model                             61          1  3.75227627E-13       *                     1_GWF-(1,11,5)
 Model                             62          2  8.95630670E-09                             1_GWF-(1,10,6)
 Model                             63          2  5.70303293E-09                             1_GWF-(1,10,6)
 Model                             64          1  1.10478293E-12       *                     1_GWF-(1,11,5)
 Model                             65          2  3.63131669E-09                             1_GWF-(1,10,6)
 Model                             66          2  2.31241004E-09                             1_GWF-(1,10,6)
 Model                             67          1  3.16358051E-13       *                     1_GWF-(1,11,5)
 Model                             68          2  1.47236001E-09                             1_GWF-(1,10,6)
 Model                             69          1  9.36745570E-10       *                     1_GWF-(1,10,6)
 ----------------------------------------------------------------------------------------------------------


 69 CALLS TO NUMERICAL SOLUTION IN TIME STEP 7 STRESS PERIOD 2
 134 TOTAL ITERATIONS
 
    Solving:  Stress period:     2    Time step:     8
 

 SLN_1 OUTER ITERATION SUMMARY
 ----------------------------------------------------------------------------------------------------------
                                OUTER      INNER                    STEP   MAXIMUM CHANGE MODEL-(CELLID) OR
 OUTER ITERATION STEP       ITERATION  ITERATION  MAXIMUM CHANGE SUCCESS             MODEL-PACKAGE-(NUMBER)
 ----------------------------------------------------------------------------------------------------------
 Model                              1          3     -0.42910281                              1_GWF-(1,8,6)
 Model                              2          3     -0.20242457                              1_GWF-(1,6,7)
 Model                              3          2 -1.10420841E-04                             1_GWF-(1,10,5)
 Model                              4          1 -1.94121608E-10       *                     1_GWF-(1,10,7)
 Model                              5          3      0.10138720                             1_GWF-(1,10,6)
 Model                              6          3  3.36658511E-02                             1_GWF-(1,10,6)
 Model                              7          3 -1.40379536E-02                              1_GWF-(1,6,5)
 Model                              8          2 -2.19334473E-06                              1_GWF-(1,6,5)
 Model                              9          1 -2.16840434E-19       *                      1_GWF-(1,3,8)
 Model                             10          3  1.59180766E-02                             1_GWF-(1,10,6)
 Model                             11          3  1.01310822E-02                             1_GWF-(1,10,6)
 Model                             12          2 -1.07454339E-06                             1_GWF-(1,10,5)
 Model                             13          1 -3.47283508E-20       *                     1_GWF-(1,13,2)
 Model                             14          3  6.45116731E-03                             1_GWF-(1,10,6)
 Model                             15          3  4.10695287E-03                             1_GWF-(1,10,6)
 Model                             16          2 -1.76504170E-07                             1_GWF-(1,10,7)
 Model                             17          1  1.07202607E-21       *                    1_GWF-(1,15,10)
 Model                             18          3  2.61510468E-03                             1_GWF-(1,10,6)
 Model                             19          3  1.66501255E-03                             1_GWF-(1,10,6)
 Model                             20          2 -2.90048784E-08                             1_GWF-(1,10,7)
 Model                             21          1 -1.22471477E-15       *                     1_GWF-(1,11,4)
 Model                             22          3  1.06018481E-03                             1_GWF-(1,10,6)
 Model                             23          3  6.75039306E-04                             1_GWF-(1,10,6)
 Model                             24          2 -4.76758333E-09                             1_GWF-(1,10,7)
 Model                             25          1 -8.61300614E-13       *                     1_GWF-(1,11,4)
 Model                             26          3  4.29824325E-04                             1_GWF-(1,10,6)
 Model                             27          3  2.73681975E-04                             1_GWF-(1,10,6)
 Model                             28          1 -7.82870102E-10       *                     1_GWF-(1,10,7)
 Model                             29          3  1.74263829E-04                             1_GWF-(1,10,6)
 Model                             30          3  1.10959781E-04                             1_GWF-(1,10,6)
 Model                             31          1 -1.24247168E-10       *                     1_GWF-(1,10,7)
 Model                             32          2  7.06522955E-05                             1_GWF-(1,10,6)
 Model                             33          2  4.49868831E-05                             1_GWF-(1,10,6)
 Model                             34          1 -1.13093979E-11       *                     1_GWF-(1,10,7)
 Model                             35          2  2.86448367E-05                             1_GWF-(1,10,6)
 Model                             36          2  1.82392336E-05                             1_GWF-(1,10,6)
 Model                             37          1 -1.33337785E-13       *                     1_GWF-(1,10,7)
 Model                             38          2  1.16136036E-05                             1_GWF-(1,10,6)
 Model                             39          2  7.39481677E-06                             1_GWF-(1,10,6)
 Model                             40          1 -6.66133815E-16       *                     1_GWF-(1,10,7)
 Model                             41          2  4.70855733E-06                             1_GWF-(1,10,6)
 Model                             42          2  2.99811518E-06                             1_GWF-(1,10,6)
 Model                             43          1  1.73472348E-18       *                      1_GWF-(1,9,8)
 Model                             44          2  1.90901249E-06                             1_GWF-(1,10,6)
 Model                             45          2  1.21553993E-06                             1_GWF-(1,10,6)
 Model                             46          1  3.04931861E-20       *                     1_GWF-(1,13,3)
 Model                             47          2  7.73979960E-07                             1_GWF-(1,10,6)
 Model                             48          2  4.92822092E-07                             1_GWF-(1,10,6)
 Model                             49          1  1.01643954E-20       *                     1_GWF-(1,13,3)
 Model                             50          2  3.13798339E-07                             1_GWF-(1,10,6)
 Model                             51          2  1.99807155E-07                             1_GWF-(1,10,6)
 Model                             52          1 -6.77626358E-21       *                     1_GWF-(1,14,6)
 Model                             53          2  1.27224725E-07                             1_GWF-(1,10,6)
 Model                             54          2  8.10087483E-08                             1_GWF-(1,10,6)
 Model                             55          1  2.16840434E-19       *                     1_GWF-(1,12,4)
 Model                             56          2  5.15813047E-08                             1_GWF-(1,10,6)
 Model                             57          2  3.28437386E-08                             1_GWF-(1,10,6)
 Model                             58          1  1.12410081E-15       *                     1_GWF-(1,11,5)
 Model                             59          2  2.09126695E-08                             1_GWF-(1,10,6)
 Model                             60          2  1.33156569E-08                             1_GWF-(1,10,6)
 Model                             61          1  4.29004055E-13       *                     1_GWF-(1,11,5)
 Model                             62          2  8.47859360E-09                             1_GWF-(1,10,6)
 Model                             63          2  5.39891232E-09                             1_GWF-(1,10,6)
 Model                             64          1  1.10117471E-12       *                     1_GWF-(1,11,5)
 Model                             65          2  3.43766449E-09                             1_GWF-(1,10,6)
 Model                             66          2  2.18906393E-09                             1_GWF-(1,10,6)
 Model                             67          1  3.00023895E-13       *                     1_GWF-(1,11,5)
 Model                             68          2  1.39385203E-09                             1_GWF-(1,10,6)
 Model                             69          1  8.86720475E-10       *                     1_GWF-(1,10,6)
 ----------------------------------------------------------------------------------------------------------


 69 CALLS TO NUMERICAL SOLUTION IN TIME STEP 8 STRESS PERIOD 2
 134 TOTAL ITERATIONS
 
    Solving:  Stress period:     2    Time step:     9
 

 SLN_1 OUTER ITERATION SUMMARY
 ----------------------------------------------------------------------------------------------------------
                                OUTER      INNER                    STEP   MAXIMUM CHANGE MODEL-(CELLID) OR
 OUTER ITERATION STEP       ITERATION  ITERATION  MAXIMUM CHANGE SUCCESS             MODEL-PACKAGE-(NUMBER)
 ----------------------------------------------------------------------------------------------------------
 Model                              1          3     -0.38570276                              1_GWF-(1,8,6)
 Model                              2          3     -0.20703068                              1_GWF-(1,6,7)
 Model                              3          2 -1.06967854E-04                             1_GWF-(1,10,5)
 Model                              4          1 -1.80693793E-10       *                     1_GWF-(1,10,7)
 Model                              5          3      0.10232048                             1_GWF-(1,10,6)
 Model                              6          3 -1.92940085E-02                             1_GWF-(1,10,6)
 Model                              7          3 -1.00799213E-02                              1_GWF-(1,6,5)
 Model                              8          2 -1.13088574E-06                              1_GWF-(1,6,5)
 Model                              9          1 -5.42101086E-20       *                      1_GWF-(1,9,2)
 Model                             10          3 -1.34750397E-02                              1_GWF-(1,6,7)
 Model                             11          3 -8.58498343E-03                              1_GWF-(1,6,7)
 Model                             12          2 -8.21029812E-07                              1_GWF-(1,6,7)
 Model                             13          1 -5.42101086E-20       *                      1_GWF-(1,9,2)
 Model                             14          3 -5.46618717E-03                              1_GWF-(1,6,7)
 Model                             15          3 -3.48133621E-03                              1_GWF-(1,6,7)
 Model                             16          3 -1.42253648E-03                             1_GWF-(1,10,5)
 Model                             17          3  1.08387569E-03                             1_GWF-(1,10,5)
 Model                             18          2 -1.31199929E-08                             1_GWF-(1,10,5)
 Model                             19          1 -1.27475808E-12       *                      1_GWF-(1,9,6)
 Model                             20          3 -2.73658769E-03                             1_GWF-(1,10,7)
 Model                             21          3 -2.54662015E-03                             1_GWF-(1,10,7)
 Model                             22          2 -7.20726204E-08                             1_GWF-(1,10,5)
 Model                             23          1 -2.77555756E-17       *                     1_GWF-(1,11,4)
 Model                             24          3 -2.13354219E-03                             1_GWF-(1,10,7)
 Model                             25          3 -1.68465837E-03                             1_GWF-(1,10,7)
 Model                             26          2 -3.15454262E-08                             1_GWF-(1,10,5)
 Model                             27          1 -3.28626015E-14       *                      1_GWF-(1,9,6)
 Model                             28          3 -1.28031507E-03                             1_GWF-(1,10,7)
 Model                             29          3 -9.47481490E-04                             1_GWF-(1,10,7)
 Model                             30          2 -9.98058935E-09                             1_GWF-(1,10,5)
 Model                             31          1 -1.47215573E-12       *                      1_GWF-(1,9,6)
 Model                             32          3 -6.87491756E-04                             1_GWF-(1,10,7)
 Model                             33          3 -4.91378109E-04                             1_GWF-(1,10,7)
 Model                             34          2 -2.68494815E-09                             1_GWF-(1,10,5)
 Model                             35          1 -2.71005440E-13       *                      1_GWF-(1,9,6)
 Model                             36          3 -3.47019809E-04                             1_GWF-(1,10,7)
 Model                             37          3 -2.42704193E-04                             1_GWF-(1,10,7)
 Model                             38          1 -6.53055721E-10       *                     1_GWF-(1,10,7)
 Model                             39          3 -1.68382916E-04                             1_GWF-(1,10,7)
 Model                             40          2 -1.16032168E-04                             1_GWF-(1,10,7)
 Model                             41          1 -1.42035717E-10       *                     1_GWF-(1,10,7)
 Model                             42          2 -7.94957387E-05                             1_GWF-(1,10,7)
 Model                             43          2 -5.41927995E-05                             1_GWF-(1,10,7)
 Model                             44          1 -1.84031679E-11       *                     1_GWF-(1,10,7)
 Model                             45          2 -3.67829225E-05                             1_GWF-(1,10,7)
 Model                             46          2 -2.48706164E-05                             1_GWF-(1,10,7)
 Model                             47          1 -4.65294470E-13       *                     1_GWF-(1,10,7)
 Model                             48          2 -1.67590917E-05                             1_GWF-(1,10,7)
 Model                             49          2 -1.12589156E-05                             1_GWF-(1,10,7)
 Model                             50          1 -4.32986980E-15       *                     1_GWF-(1,10,7)
 Model                             51          2 -7.54325658E-06                             1_GWF-(1,10,7)
 Model                             52          2 -5.04141037E-06                             1_GWF-(1,10,7)
 Model                             53          1  1.38777878E-17       *                      1_GWF-(1,9,7)
 Model                             54          2 -3.36182296E-06                             1_GWF-(1,10,7)
 Model                             55          2 -2.23724152E-06                             1_GWF-(1,10,7)
 Model                             56          1 -2.16840434E-19       *                     1_GWF-(1,7,10)
 Model                             57          2 -1.48607581E-06                             1_GWF-(1,10,7)
 Model                             58          2 -9.85427867E-07                             1_GWF-(1,10,7)
 Model                             59          1 -1.52465931E-20       *                     1_GWF-(1,13,2)
 Model                             60          2 -6.52412743E-07                             1_GWF-(1,10,5)
 Model                             61          2 -4.31305768E-07                             1_GWF-(1,10,7)
 Model                             62          1 -7.62329653E-21       *                     1_GWF-(1,13,1)
 Model                             63          2 -2.84746978E-07                             1_GWF-(1,10,7)
 Model                             64          2 -1.87752369E-07                             1_GWF-(1,10,7)
 Model                             65          1 -5.42101086E-20       *                     1_GWF-(1,12,3)
 Model                             66          2 -1.23651893E-07                             1_GWF-(1,10,7)
 Model                             67          2 -8.13464481E-08                             1_GWF-(1,10,7)
 Model                             68          1 -4.85722573E-17       *                     1_GWF-(1,11,4)
 Model                             69          2 -5.34599935E-08                             1_GWF-(1,10,7)
 Model                             70          2 -3.50994602E-08                             1_GWF-(1,10,7)
 Model                             71          1 -4.69624339E-14       *                      1_GWF-(1,9,6)
 Model                             72          2 -2.30239138E-08                             1_GWF-(1,10,7)
 Model                             73          2 -1.50898760E-08                             1_GWF-(1,10,5)
 Model                             74          1 -1.52333701E-12       *                      1_GWF-(1,9,6)
 Model                             75          2 -9.88188709E-09                             1_GWF-(1,10,5)
 Model                             76          2 -6.46637754E-09                             1_GWF-(1,10,5)
 Model                             77          1 -1.26010313E-12       *                      1_GWF-(1,9,6)
 Model                             78          2 -4.22824498E-09                             1_GWF-(1,10,5)
 Model                             79          2 -2.76283441E-09                             1_GWF-(1,10,5)
 Model                             80          1 -2.46358489E-13       *                      1_GWF-(1,9,6)
 Model                             81          2 -1.80411464E-09                             1_GWF-(1,10,5)
 Model                             82          2 -1.17732046E-09                             1_GWF-(1,10,5)
 Model                             83          1 -7.66258390E-10       *                     1_GWF-(1,10,5)
 ----------------------------------------------------------------------------------------------------------


 83 CALLS TO NUMERICAL SOLUTION IN TIME STEP 9 STRESS PERIOD 2
 164 TOTAL ITERATIONS
 
    Solving:  Stress period:     2    Time step:    10
 

 SLN_1 OUTER ITERATION SUMMARY
 ----------------------------------------------------------------------------------------------------------
                                OUTER      INNER                    STEP   MAXIMUM CHANGE MODEL-(CELLID) OR
 OUTER ITERATION STEP       ITERATION  ITERATION  MAXIMUM CHANGE SUCCESS             MODEL-PACKAGE-(NUMBER)
 ----------------------------------------------------------------------------------------------------------
 Model                              1          3     -0.34897404                              1_GWF-(1,8,6)
 Model                              2          3     -0.21301544                              1_GWF-(1,6,7)
 Model                              3          2 -7.63069918E-05                             1_GWF-(1,10,5)
 Model                              4          1 -8.94218033E-11       *                     1_GWF-(1,10,5)
 Model                              5          3      0.10391361                             1_GWF-(1,10,6)
 Model                              6          3 -7.09776535E-02                             1_GWF-(1,10,6)
 Model                              7          3 -5.33139173E-03                              1_GWF-(1,6,5)
 Model                              8          2 -3.16346238E-07                              1_GWF-(1,6,5)
 Model                              9          1 -4.06575815E-20       *                     1_GWF-(1,3,10)
 Model                             10          3 -1.22029062E-02                              1_GWF-(1,6,7)
 Model                             11          3 -7.77413356E-03                              1_GWF-(1,6,7)
 Model                             12          2 -6.73149069E-07                              1_GWF-(1,6,7)
 Model                             13          1 -4.06575815E-20       *                     1_GWF-(1,3,10)
 Model                             14          3 -4.94995596E-03                              1_GWF-(1,6,7)
 Model                             15          3 -3.15250734E-03                              1_GWF-(1,6,7)
 Model                             16          3 -2.83146018E-03                             1_GWF-(1,10,5)
 Model                             17          3  1.80047891E-03                             1_GWF-(1,10,5)
 Model                             18          2 -3.62069376E-08                             1_GWF-(1,10,5)
 Model                             19          1 -1.27675648E-14       *                      1_GWF-(1,9,6)
 Model                             20          3 -3.12309330E-03                             1_GWF-(1,10,7)
 Model                             21          3 -2.71709345E-03                             1_GWF-(1,10,7)
 Model                             22          2 -8.20697885E-08                             1_GWF-(1,10,5)
 Model                             23          1 -1.04083409E-17       *                      1_GWF-(1,9,8)
 Model                             24          3 -2.19388355E-03                             1_GWF-(1,10,7)
 Model                             25          3 -1.69239045E-03                             1_GWF-(1,10,7)
 Model                             26          2 -3.18452844E-08                             1_GWF-(1,10,5)
 Model                             27          1 -3.14193116E-14       *                      1_GWF-(1,9,6)
 Model                             28          3 -1.26568830E-03                             1_GWF-(1,10,7)
 Model                             29          3 -9.25718181E-04                             1_GWF-(1,10,7)
 Model                             30          2 -9.53028778E-09                             1_GWF-(1,10,5)
 Model                             31          1 -1.47559742E-12       *                      1_GWF-(1,9,6)
 Model                             32          3 -6.65706189E-04                             1_GWF-(1,10,7)
 Model                             33          3 -4.72457182E-04                             1_GWF-(1,10,7)
 Model                             34          2 -2.48290233E-09                             1_GWF-(1,10,5)
 Model                             35          1 -2.28039809E-13       *                      1_GWF-(1,9,6)
 Model                             36          3 -3.31757181E-04                             1_GWF-(1,10,7)
 Model                             37          3 -2.30938361E-04                             1_GWF-(1,10,7)
 Model                             38          1 -5.91060756E-10       *                     1_GWF-(1,10,7)
 Model                             39          3 -1.59587453E-04                             1_GWF-(1,10,7)
 Model                             40          2 -1.09601486E-04                             1_GWF-(1,10,7)
 Model                             41          1 -1.25221278E-10       *                     1_GWF-(1,10,7)
 Model                             42          2 -7.48724079E-05                             1_GWF-(1,10,7)
 Model                             43          2 -5.09122725E-05                             1_GWF-(1,10,7)
 Model                             44          1 -1.47353241E-11       *                     1_GWF-(1,10,7)
 Model                             45          2 -3.44797034E-05                             1_GWF-(1,10,7)
 Model                             46          2 -2.32675466E-05                             1_GWF-(1,10,7)
 Model                             47          1 -3.17745830E-13       *                     1_GWF-(1,10,7)
 Model                             48          2 -1.56514211E-05                             1_GWF-(1,10,7)
 Model                             49          2 -1.04982595E-05                             1_GWF-(1,10,7)
 Model                             50          1 -2.88657986E-15       *                     1_GWF-(1,10,7)
 Model                             51          2 -7.02366494E-06                             1_GWF-(1,10,7)
 Model                             52          2 -4.68811774E-06                             1_GWF-(1,10,7)
 Model                             53          1 -6.93889390E-18       *                     1_GWF-(1,11,4)
 Model                             54          2 -3.12257270E-06                             1_GWF-(1,10,7)
 Model                             55          2 -2.07579861E-06                             1_GWF-(1,10,7)
 Model                             56          1 -4.33680869E-19       *                     1_GWF-(1,7,10)
 Model                             57          2 -1.37748209E-06                             1_GWF-(1,10,7)
 Model                             58          2 -9.12590749E-07                             1_GWF-(1,10,7)
 Model                             59          1 -1.69406589E-20       *                     1_GWF-(1,13,2)
 Model                             60          2 -6.03683902E-07                             1_GWF-(1,10,7)
 Model                             61          2 -3.98781391E-07                             1_GWF-(1,10,7)
 Model                             62          1  2.71050543E-20       *                     1_GWF-(1,13,9)
 Model                             63          2 -2.63084225E-07                             1_GWF-(1,10,7)
 Model                             64          2 -1.73351885E-07                             1_GWF-(1,10,7)
 Model                             65          1 -1.08420217E-19       *                     1_GWF-(1,12,3)
 Model                             66          2 -1.14096048E-07                             1_GWF-(1,10,7)
 Model                             67          2 -7.50157283E-08                             1_GWF-(1,10,7)
 Model                             68          1 -1.11022302E-16       *                      1_GWF-(1,9,6)
 Model                             69          2 -4.92722821E-08                             1_GWF-(1,10,7)
 Model                             70          2 -3.23331502E-08                             1_GWF-(1,10,7)
 Model                             71          1 -8.19344592E-14       *                      1_GWF-(1,9,6)
 Model                             72          2 -2.11988895E-08                             1_GWF-(1,10,7)
 Model                             73          2 -1.38873698E-08                             1_GWF-(1,10,5)
 Model                             74          1 -1.64834812E-12       *                      1_GWF-(1,9,6)
 Model                             75          2 -9.09043651E-09                             1_GWF-(1,10,5)
 Model                             76          2 -5.94599747E-09                             1_GWF-(1,10,5)
 Model                             77          1 -1.13675735E-12       *                      1_GWF-(1,9,6)
 Model                             78          2 -3.88645516E-09                             1_GWF-(1,10,5)
 Model                             79          2 -2.53853971E-09                             1_GWF-(1,10,5)
 Model                             80          1 -2.00839345E-13       *                      1_GWF-(1,9,6)
 Model                             81          2 -1.65700575E-09                             1_GWF-(1,10,5)
 Model                             82          2 -1.08100218E-09                             1_GWF-(1,10,5)
 Model                             83          1 -7.03090142E-10       *                     1_GWF-(1,10,5)
 ----------------------------------------------------------------------------------------------------------


 83 CALLS TO NUMERICAL SOLUTION IN TIME STEP 10 STRESS PERIOD 2
 164 TOTAL ITERATIONS
 
    Solving:  Stress period:     2    Time step:    11
 

 SLN_1 OUTER ITERATION SUMMARY
 ----------------------------------------------------------------------------------------------------------
                                OUTER      INNER                    STEP   MAXIMUM CHANGE MODEL-(CELLID) OR
 OUTER ITERATION STEP       ITERATION  ITERATION  MAXIMUM CHANGE SUCCESS             MODEL-PACKAGE-(NUMBER)
 ----------------------------------------------------------------------------------------------------------
 Model                              1          3     -0.31844117                              1_GWF-(1,8,6)
 Model                              2          3     -0.21979416                              1_GWF-(1,6,7)
 Model                              3          2 -7.30196463E-05                             1_GWF-(1,10,5)
 Model                              4          1 -8.08043632E-11       *                     1_GWF-(1,10,5)
 Model                              5          3      0.10587931                             1_GWF-(1,10,6)
 Model                              6          3 -7.00679161E-02                             1_GWF-(1,10,6)
 Model                              7          3 -6.85969553E-04                              1_GWF-(1,6,5)
 Model                              8          3  5.45230701E-04                              1_GWF-(1,6,5)
 Model                              9          2 -3.32419103E-09                              1_GWF-(1,6,5)
 Model                             10          1 -4.30266933E-13       *                      1_GWF-(1,7,4)
 Model                             11          3 -1.08248474E-02                              1_GWF-(1,6,7)
 Model                             12          3 -6.89586394E-03                              1_GWF-(1,6,7)
 Model                             13          2 -5.29525556E-07                              1_GWF-(1,6,7)
 Model                             14          1 -2.71050543E-20       *                     1_GWF-(1,10,1)
 Model                             15          3 -4.39079601E-03                              1_GWF-(1,6,7)
 Model                             16          3 -2.79634887E-03                              1_GWF-(1,6,7)
 Model                             17          3 -2.01656882E-03                             1_GWF-(1,10,5)
 Model                             18          3  1.45577117E-03                             1_GWF-(1,10,5)
 Model                             19          2 -2.36736970E-08                             1_GWF-(1,10,5)
 Model                             20          1 -2.12829754E-13       *                      1_GWF-(1,9,6)
 Model                             21          3 -2.75296051E-03                             1_GWF-(1,10,7)
 Model                             22          3 -2.39924572E-03                             1_GWF-(1,10,7)
 Model                             23          2 -6.40010354E-08                             1_GWF-(1,10,5)
 Model                             24          1 -1.11022302E-16       *                      1_GWF-(1,9,6)
 Model                             25          3 -1.93919632E-03                             1_GWF-(1,10,7)
 Model                             26          3 -1.49689254E-03                             1_GWF-(1,10,7)
 Model                             27          2 -2.49165665E-08                             1_GWF-(1,10,5)
 Model                             28          1 -1.51545443E-13       *                      1_GWF-(1,9,6)
 Model                             29          3 -1.11999949E-03                             1_GWF-(1,10,7)
 Model                             30          3 -8.19439481E-04                             1_GWF-(1,10,7)
 Model                             31          2 -7.46882700E-09                             1_GWF-(1,10,5)
 Model                             32          1 -1.36801681E-12       *                      1_GWF-(1,9,6)
 Model                             33          3 -5.89435261E-04                             1_GWF-(1,10,7)
 Model                             34          3 -4.18414434E-04                             1_GWF-(1,10,7)
 Model                             35          2 -1.94759775E-09                             1_GWF-(1,10,5)
 Model                             36          1 -1.24344979E-13       *                      1_GWF-(1,9,6)
 Model                             37          3 -2.93859400E-04                             1_GWF-(1,10,7)
 Model                             38          3 -2.04586577E-04                             1_GWF-(1,10,7)
 Model                             39          1 -4.62881844E-10       *                     1_GWF-(1,10,7)
 Model                             40          3 -1.41394539E-04                             1_GWF-(1,10,7)
 Model                             41          2 -9.71170117E-05                             1_GWF-(1,10,7)
 Model                             42          1 -9.49492707E-11       *                     1_GWF-(1,10,7)
 Model                             43          2 -6.63498579E-05                             1_GWF-(1,10,7)
 Model                             44          2 -4.51206101E-05                             1_GWF-(1,10,7)
 Model                             45          1 -9.22795174E-12       *                     1_GWF-(1,10,7)
 Model                             46          2 -3.05595172E-05                             1_GWF-(1,10,7)
 Model                             47          2 -2.06234177E-05                             1_GWF-(1,10,7)
 Model                             48          1 -1.57984736E-13       *                     1_GWF-(1,10,7)
 Model                             49          2 -1.38735687E-05                             1_GWF-(1,10,7)
 Model                             50          2 -9.30622886E-06                             1_GWF-(1,10,7)
 Model                             51          1 -1.44328993E-15       *                     1_GWF-(1,10,7)
 Model                             52          2 -6.22644582E-06                             1_GWF-(1,10,7)
 Model                             53          2 -4.15616911E-06                             1_GWF-(1,10,7)
 Model                             54          1 -6.93889390E-18       *                     1_GWF-(1,11,4)
 Model                             55          2 -2.76836925E-06                             1_GWF-(1,10,7)
 Model                             56          2 -1.84039959E-06                             1_GWF-(1,10,7)
 Model                             57          1 -2.16840434E-19       *                     1_GWF-(1,7,10)
 Model                             58          2 -1.22131354E-06                             1_GWF-(1,10,7)
 Model                             59          2 -8.09152625E-07                             1_GWF-(1,10,7)
 Model                             60          1 -2.37169225E-20       *                     1_GWF-(1,13,2)
 Model                             61          2 -5.35274332E-07                             1_GWF-(1,10,7)
 Model                             62          2 -3.53600757E-07                             1_GWF-(1,10,7)
 Model                             63          1 -1.35525272E-20       *                     1_GWF-(1,11,1)
 Model                             64          2 -2.33283554E-07                             1_GWF-(1,10,7)
 Model                             65          2 -1.53719127E-07                             1_GWF-(1,10,7)
[...]
 Model                             51          1       0.0000000       *                    1_GWF-(1,15,10)
 Model                             52          2  1.85809298E-07                             1_GWF-(1,10,6)
 Model                             53          2  1.21121704E-07                             1_GWF-(1,10,6)
 Model                             54          1       0.0000000       *                    1_GWF-(1,15,10)
 Model                             55          2  7.89933541E-08                             1_GWF-(1,10,6)
 Model                             56          2  5.14925546E-08                             1_GWF-(1,10,6)
 Model                             57          1  1.11022302E-16       *                     1_GWF-(1,11,6)
 Model                             58          2  3.35824238E-08                             1_GWF-(1,10,6)
 Model                             59          2  2.18909108E-08                             1_GWF-(1,10,6)
 Model                             60          1  7.14983628E-14       *                      1_GWF-(1,9,7)
 Model                             61          2  1.42766408E-08                             1_GWF-(1,10,6)
 Model                             62          2  9.30644473E-09                             1_GWF-(1,10,6)
 Model                             63          1  1.22213351E-12       *                      1_GWF-(1,9,7)
 Model                             64          2  6.06947004E-09                             1_GWF-(1,10,6)
 Model                             65          2  3.95674804E-09                             1_GWF-(1,10,6)
 Model                             66          1  7.74269537E-13       *                      1_GWF-(1,9,7)
 Model                             67          2  2.58042243E-09                             1_GWF-(1,10,6)
 Model                             68          2  1.68219394E-09                             1_GWF-(1,10,6)
 Model                             69          1  1.29007915E-13       *                      1_GWF-(1,9,7)
 Model                             70          2  1.09712461E-09                             1_GWF-(1,10,6)
 Model                             71          1  7.14150072E-10       *                     1_GWF-(1,10,6)
 ----------------------------------------------------------------------------------------------------------


 71 CALLS TO NUMERICAL SOLUTION IN TIME STEP 98 STRESS PERIOD 2
 136 TOTAL ITERATIONS
 
    Solving:  Stress period:     2    Time step:    99
 

 SLN_1 OUTER ITERATION SUMMARY
 ----------------------------------------------------------------------------------------------------------
                                OUTER      INNER                    STEP   MAXIMUM CHANGE MODEL-(CELLID) OR
 OUTER ITERATION STEP       ITERATION  ITERATION  MAXIMUM CHANGE SUCCESS             MODEL-PACKAGE-(NUMBER)
 ----------------------------------------------------------------------------------------------------------
 Model                              1          3     -0.14596555                             1_GWF-(1,10,6)
 Model                              2          3 -5.98725854E-02                              1_GWF-(1,6,6)
 Model                              3          2 -2.60239227E-05                             1_GWF-(1,10,7)
 Model                              4          1 -1.72795112E-12       *                     1_GWF-(1,10,5)
 Model                              5          3  3.76097861E-02                             1_GWF-(1,10,6)
 Model                              6          3 -3.78036617E-02                              1_GWF-(1,6,6)
 Model                              7          2 -1.05245074E-05                              1_GWF-(1,6,6)
 Model                              8          1 -1.77635684E-15       *                      1_GWF-(1,6,6)
 Model                              9          3  1.25167718E-02                             1_GWF-(1,10,6)
 Model                             10          3  8.15616972E-03                             1_GWF-(1,10,6)
 Model                             11          2 -6.97540513E-07                             1_GWF-(1,10,7)
 Model                             12          1       0.0000000       *                    1_GWF-(1,15,10)
 Model                             13          3  5.32343538E-03                             1_GWF-(1,10,6)
 Model                             14          3  3.46959133E-03                             1_GWF-(1,10,6)
 Model                             15          2 -1.26178943E-07                             1_GWF-(1,10,7)
 Model                             16          1       0.0000000       *                    1_GWF-(1,15,10)
 Model                             17          3  2.26279442E-03                             1_GWF-(1,10,6)
 Model                             18          3  1.47492769E-03                             1_GWF-(1,10,6)
 Model                             19          2 -2.27978906E-08                             1_GWF-(1,10,7)
 Model                             20          1 -5.56221735E-14       *                      1_GWF-(1,9,8)
 Model                             21          3  9.61917785E-04                             1_GWF-(1,10,6)
 Model                             22          3  6.27018394E-04                             1_GWF-(1,10,6)
 Model                             23          2 -4.11920542E-09                             1_GWF-(1,10,7)
 Model                             24          1 -7.42184092E-13       *                      1_GWF-(1,9,8)
 Model                             25          3  4.08928959E-04                             1_GWF-(1,10,6)
 Model                             26          3  2.66561417E-04                             1_GWF-(1,10,6)
 Model                             27          1 -7.43217932E-10       *                     1_GWF-(1,10,7)
 Model                             28          3  1.73846129E-04                             1_GWF-(1,10,6)
 Model                             29          3  1.13322845E-04                             1_GWF-(1,10,6)
 Model                             30          1 -1.28575040E-10       *                     1_GWF-(1,10,5)
 Model                             31          2  7.39069436E-05                             1_GWF-(1,10,6)
 Model                             32          2  4.81769158E-05                             1_GWF-(1,10,6)
 Model                             33          1 -1.26681998E-11       *                     1_GWF-(1,10,5)
 Model                             34          2  3.14200371E-05                             1_GWF-(1,10,6)
 Model                             35          2  2.04814685E-05                             1_GWF-(1,10,6)
 Model                             36          1 -1.92068583E-13       *                     1_GWF-(1,10,5)
 Model                             37          2  1.33576120E-05                             1_GWF-(1,10,6)
 Model                             38          2  8.70729846E-06                             1_GWF-(1,10,6)
 Model                             39          1 -1.33226763E-15       *                     1_GWF-(1,10,7)
 Model                             40          2  5.67873020E-06                             1_GWF-(1,10,6)
 Model                             41          2  3.70173971E-06                             1_GWF-(1,10,6)
 Model                             42          1       0.0000000       *                    1_GWF-(1,15,10)
 Model                             43          2  2.41420261E-06                             1_GWF-(1,10,6)
 Model                             44          2  1.57372326E-06                             1_GWF-(1,10,6)
 Model                             45          1       0.0000000       *                    1_GWF-(1,15,10)
 Model                             46          2  1.02635169E-06                             1_GWF-(1,10,6)
 Model                             47          2  6.69038177E-07                             1_GWF-(1,10,6)
 Model                             48          1       0.0000000       *                    1_GWF-(1,15,10)
 Model                             49          2  4.36333677E-07                             1_GWF-(1,10,6)
 Model                             50          2  2.84428651E-07                             1_GWF-(1,10,6)
 Model                             51          1       0.0000000       *                    1_GWF-(1,15,10)
 Model                             52          2  1.85498873E-07                             1_GWF-(1,10,6)
 Model                             53          2  1.20919376E-07                             1_GWF-(1,10,6)
 Model                             54          1       0.0000000       *                    1_GWF-(1,15,10)
 Model                             55          2  7.88612532E-08                             1_GWF-(1,10,6)
 Model                             56          2  5.14064898E-08                             1_GWF-(1,10,6)
 Model                             57          1  1.11022302E-16       *                     1_GWF-(1,11,6)
 Model                             58          2  3.35262423E-08                             1_GWF-(1,10,6)
 Model                             59          2  2.18542766E-08                             1_GWF-(1,10,6)
 Model                             60          1  7.23865412E-14       *                      1_GWF-(1,9,7)
 Model                             61          2  1.42526980E-08                             1_GWF-(1,10,6)
 Model                             62          2  9.29087263E-09                             1_GWF-(1,10,6)
 Model                             63          1  1.22324373E-12       *                      1_GWF-(1,9,7)
 Model                             64          2  6.05932715E-09                             1_GWF-(1,10,6)
 Model                             65          2  3.95009425E-09                             1_GWF-(1,10,6)
 Model                             66          1  7.71827047E-13       *                      1_GWF-(1,9,7)
 Model                             67          2  2.57612653E-09                             1_GWF-(1,10,6)
 Model                             68          2  1.67938097E-09                             1_GWF-(1,10,6)
 Model                             69          1  1.28563826E-13       *                      1_GWF-(1,9,7)
 Model                             70          2  1.09528686E-09                             1_GWF-(1,10,6)
 Model                             71          1  7.12915615E-10       *                     1_GWF-(1,10,6)
 ----------------------------------------------------------------------------------------------------------


 71 CALLS TO NUMERICAL SOLUTION IN TIME STEP 99 STRESS PERIOD 2
 136 TOTAL ITERATIONS
 
    Solving:  Stress period:     2    Time step:   100
 

 SLN_1 OUTER ITERATION SUMMARY
 ----------------------------------------------------------------------------------------------------------
                                OUTER      INNER                    STEP   MAXIMUM CHANGE MODEL-(CELLID) OR
 OUTER ITERATION STEP       ITERATION  ITERATION  MAXIMUM CHANGE SUCCESS             MODEL-PACKAGE-(NUMBER)
 ----------------------------------------------------------------------------------------------------------
 Model                              1          3     -0.14580551                             1_GWF-(1,10,6)
 Model                              2          3 -5.99487668E-02                              1_GWF-(1,6,6)
 Model                              3          2 -2.59801305E-05                             1_GWF-(1,10,7)
 Model                              4          1 -1.71274106E-12       *                     1_GWF-(1,10,5)
 Model                              5          3  3.76226314E-02                             1_GWF-(1,10,6)
 Model                              6          3 -3.76619739E-02                              1_GWF-(1,6,6)
 Model                              7          2 -1.04457470E-05                              1_GWF-(1,6,6)
 Model                              8          1 -1.66533454E-15       *                      1_GWF-(1,6,6)
 Model                              9          3  1.24963059E-02                             1_GWF-(1,10,6)
 Model                             10          3  8.14283885E-03                             1_GWF-(1,10,6)
 Model                             11          2 -6.95317518E-07                             1_GWF-(1,10,7)
 Model                             12          1       0.0000000       *                    1_GWF-(1,15,10)
 Model                             13          3  5.31476904E-03                             1_GWF-(1,10,6)
 Model                             14          3  3.46394400E-03                             1_GWF-(1,10,6)
 Model                             15          2 -1.25778607E-07                             1_GWF-(1,10,7)
 Model                             16          1       0.0000000       *                    1_GWF-(1,15,10)
 Model                             17          3  2.25910870E-03                             1_GWF-(1,10,6)
 Model                             18          3  1.47252550E-03                             1_GWF-(1,10,6)
 Model                             19          2 -2.27255139E-08                             1_GWF-(1,10,7)
 Model                             20          1 -5.70654635E-14       *                      1_GWF-(1,9,8)
 Model                             21          3  9.60349990E-04                             1_GWF-(1,10,6)
 Model                             22          3  6.25996496E-04                             1_GWF-(1,10,6)
 Model                             23          2 -4.10611389E-09                             1_GWF-(1,10,7)
 Model                             24          1 -7.37632178E-13       *                      1_GWF-(1,9,8)
 Model                             25          3  4.08262013E-04                             1_GWF-(1,10,6)
 Model                             26          3  2.66126685E-04                             1_GWF-(1,10,6)
 Model                             27          1 -7.40851602E-10       *                     1_GWF-(1,10,7)
 Model                             28          3  1.73562399E-04                             1_GWF-(1,10,6)
 Model                             29          3  1.13137900E-04                             1_GWF-(1,10,6)
 Model                             30          1 -1.28134170E-10       *                     1_GWF-(1,10,5)
 Model                             31          2  7.37862385E-05                             1_GWF-(1,10,6)
 Model                             32          2  4.80982355E-05                             1_GWF-(1,10,6)
 Model                             33          1 -1.25935928E-11       *                     1_GWF-(1,10,5)
 Model                             34          2  3.13686862E-05                             1_GWF-(1,10,6)
 Model                             35          2  2.04479958E-05                             1_GWF-(1,10,6)
 Model                             36          1 -1.90292226E-13       *                     1_GWF-(1,10,5)
 Model                             37          2  1.33357660E-05                             1_GWF-(1,10,6)
 Model                             38          2  8.69305833E-06                             1_GWF-(1,10,6)
 Model                             39          1 -1.33226763E-15       *                     1_GWF-(1,10,7)
 Model                             40          2  5.66943628E-06                             1_GWF-(1,10,6)
 Model                             41          2  3.69568160E-06                             1_GWF-(1,10,6)
 Model                             42          1       0.0000000       *                    1_GWF-(1,15,10)
 Model                             43          2  2.41024873E-06                             1_GWF-(1,10,6)
 Model                             44          2  1.57114603E-06                             1_GWF-(1,10,6)
 Model                             45          1       0.0000000       *                    1_GWF-(1,15,10)
 Model                             46          2  1.02466966E-06                             1_GWF-(1,10,6)
 Model                             47          2  6.67941665E-07                             1_GWF-(1,10,6)
 Model                             48          1       0.0000000       *                    1_GWF-(1,15,10)
 Model                             49          2  4.35618082E-07                             1_GWF-(1,10,6)
 Model                             50          2  2.83962216E-07                             1_GWF-(1,10,6)
 Model                             51          1       0.0000000       *                    1_GWF-(1,15,10)
 Model                             52          2  1.85194435E-07                             1_GWF-(1,10,6)
 Model                             53          2  1.20720930E-07                             1_GWF-(1,10,6)
 Model                             54          1       0.0000000       *                    1_GWF-(1,15,10)
 Model                             55          2  7.87317104E-08                             1_GWF-(1,10,6)
 Model                             56          2  5.13221106E-08                             1_GWF-(1,10,6)
 Model                             57          1  1.11022302E-16       *                     1_GWF-(1,11,6)
 Model                             58          2  3.34711285E-08                             1_GWF-(1,10,6)
 Model                             59          2  2.18183814E-08                             1_GWF-(1,10,6)
 Model                             60          1  7.32747196E-14       *                      1_GWF-(1,9,7)
 Model                             61          2  1.42292472E-08                             1_GWF-(1,10,6)
 Model                             62          2  9.27562649E-09                             1_GWF-(1,10,6)
 Model                             63          1  1.22502009E-12       *                      1_GWF-(1,9,7)
 Model                             64          2  6.04934669E-09                             1_GWF-(1,10,6)
 Model                             65          2  3.94356625E-09                             1_GWF-(1,10,6)
 Model                             66          1  7.69384556E-13       *                      1_GWF-(1,9,7)
 Model                             67          2  2.57189503E-09                             1_GWF-(1,10,6)
 Model                             68          2  1.67657266E-09                             1_GWF-(1,10,6)
 Model                             69          1  1.27675648E-13       *                      1_GWF-(1,9,7)
 Model                             70          2  1.09347364E-09                             1_GWF-(1,10,6)
 Model                             71          1  7.11785852E-10       *                     1_GWF-(1,10,6)
 ----------------------------------------------------------------------------------------------------------


 71 CALLS TO NUMERICAL SOLUTION IN TIME STEP 100 STRESS PERIOD 2
 136 TOTAL ITERATIONS


 Solution SLN_1 summary
 ----------------------------------------------------------------------
 Total formulate time:  .4531250000000000 seconds
 Total solution time:   .2343750000000000 seconds


 MEMORY MANAGER TOTAL STORAGE BY DATA TYPE, IN KILOBYTES
 -------------------------------
                    ALLOCATED   
 DATA TYPE           MEMORY     
 -------------------------------
 Character        39.092000     
 Logical          0.17600000    
 Integer          136.64000     
 Real             336.80000     
 -------------------------------
 Total            512.70800     
 -------------------------------


 
 Run end date and time (yyyy/mm/dd hh:mm:ss): 2022/07/16 15:15:48
 Elapsed run time: 29.140 Seconds
 Normal termination of simulation.
