                                   MODFLOW 6
                U.S. GEOLOGICAL SURVEY MODULAR HYDROLOGIC MODEL
                   VERSION 6.4.0 release candidate 07/06/2022
                               ***DEVELOP MODE***

   MODFLOW 6 compiled Jul 06 2022 19:38:41 with Intel(R) Fortran Intel(R) 64
   Compiler Classic for applications running on Intel(R) 64, Version 2021.6.0
                             Build 20220226_000000

This software is preliminary or provisional and is subject to 
revision. It is being provided to meet the need for timely best 
science. The software has not received final approval by the U.S. 
Geological Survey (USGS). No warranty, expressed or implied, is made 
by the USGS or the U.S. Government as to the functionality of the 
software and related material nor shall the fact of release 
constitute any such warranty. The software is provided on the 
condition that neither the USGS nor the U.S. Government shall be held 
liable for any damages resulting from the authorized or unauthorized 
use of the software.


As a work of the United States Government, this USGS product is 
in the public domain within the United States. You can copy, 
modify, distribute, and perform the work, even for commercial 
purposes, all without asking permission. Additionally, USGS 
waives copyright and related rights in the work worldwide 
through CC0 1.0 Universal Public Domain Dedication 
(https://creativecommons.org/publicdomain/zero/1.0/).

The following GNU Lesser General Public License (LGPL) libraries
are used in this USGS product:

    SPARSKIT version 2.0
      ilut, luson, and qsplit 
      (https://www-users.cse.umn.edu/~saad/software/SPARSKIT/)

    RCM - Reverse Cuthill McKee Ordering
      (https://people.math.sc.edu/Burkardt/f_src/rcm/rcm.html)

    BLAS - Basic Linear Algebra Subprograms Level 1
      (https://people.math.sc.edu/Burkardt/f_src/blas1_d/blas1_d.html)

    SPARSEKIT - Sparse Matrix Utility Package
      amux, dperm, dvperm, rperm, and cperm
      (https://people.sc.fsu.edu/~jburkardt/f77_src/sparsekit/sparsekit.html)

The following BSD-3 License libraries are used in this USGS product:

    Modern Fortran DAG Library
      Copyright (c) 2018, Jacob Williams
      All rights reserved.
      (https://github.com/jacobwilliams/daglib)

MODFLOW 6 compiler options: /Isrc\libmf6core.a.p /Isrc /I..\src
/Isrc\libmf6_external.a.p /MTd /nologo /warn:general /warn:truncated_source
/stand:f08 /Zi /traceback /O2 /Zi /fpe:0 /heap-arrays:0 /traceback /fpp
/Qdiag-disable:7416 /Qdiag-disable:7025 /Qdiag-disable:5268
/Fdsrc\libmf6core.a.p\Utilities_compilerversion.F90.pdb
/module:src\libmf6core.a.p
/Fosrc/libmf6core.a.p/Utilities_compilerversion.F90.obj /c

System command used to initiate simulation:
c:\ProgramData\Anaconda3\envs\apitest\python.exe -m ipykernel_launcher --ip=127.0.0.1 --stdin=9008 --control=9006 --hb=9005 "--Session.signature_scheme=\"hmac-sha256\"" "--Session.key=b\"d56e9b92-fcad-4929-9fc4-1e904538311b\"" --shell=9007 "--transport=\"tcp\"" --iopub=9009 --f=c:\Users\rui2h\AppData\Roaming\jupyter\runtime\kernel-v2-16840XGagk6DWoibA.json

MODFLOW was compiled using uniform precision.

Real Variables
  KIND: 8
  TINY (smallest non-zero value):    2.225074-308
  HUGE (largest value):    1.797693+308
  PRECISION: 15
  BIT SIZE: 64

Integer Variables
  KIND: 4
  HUGE (largest value): 2147483647
  BIT SIZE: 32

Long Integer Variables
  KIND: 8
  HUGE (largest value): 9223372036854775807
  BIT SIZE: 64

Logical Variables
  KIND: 4
  BIT SIZE: 32
 

 OPENED mfsim.nam
 FILE TYPE:NAM   UNIT 1002   STATUS:OLD                 
 FORMAT:FORMATTED              ACCESS:SEQUENTIAL          
 ACTION:READ                

 # File generated by Flopy version 3.3.6 on 07/17/2022 at 17:08:28.

 READING SIMULATION OPTIONS
    SIMULATION WILL CONTINUE EVEN IF THERE IS NONCONVERGENCE.
 END OF SIMULATION OPTIONS

 READING SIMULATION TIMING

 OPENED model.tdis
 FILE TYPE:TDIS   UNIT 1003   STATUS:OLD                 
 FORMAT:FORMATTED              ACCESS:SEQUENTIAL          
 ACTION:READ                


 TDIS -- TEMPORAL DISCRETIZATION PACKAGE,
 VERSION 1 : 11/13/2014 - INPUT READ FROM UNIT 1003
 # File generated by Flopy version 3.3.6 on 07/17/2022 at 17:08:28.
 PROCESSING TDIS OPTIONS
    SIMULATION TIME UNIT IS DAYS
 END OF TDIS OPTIONS
 PROCESSING TDIS DIMENSIONS
    2 STRESS PERIOD(S) IN SIMULATION
 END OF TDIS DIMENSIONS
 PROCESSING TDIS PERIODDATA


 STRESS PERIOD     LENGTH       TIME STEPS     MULTIPLIER FOR DELT
 ----------------------------------------------------------------------------
        1         1.000000          1                    1.000
        2         1000.000        100                    1.000
 END OF TDIS PERIODDATA
 END OF SIMULATION TIMING

 READING SIMULATION MODELS
    GWF6 model GWF will be created as model 1
 END OF SIMULATION MODELS

 READING SIMULATION EXCHANGES
 END OF SIMULATION EXCHANGES

 READING SOLUTIONGROUP

 Creating solution: SLN_1           

 OPENED model.ims
 FILE TYPE:IMS   UNIT 1014   STATUS:OLD                 
 FORMAT:FORMATTED              ACCESS:SEQUENTIAL          
 ACTION:READ                

 END OF SIMULATION SOLUTIONGROUP

PROCESSING MODEL CONNECTIONS

 IMS -- ITERATIVE MODEL SOLUTION PACKAGE, VERSION 6, 4/28/2017
         INPUT READ FROM UNIT 1014
 # File generated by Flopy version 3.3.6 on 07/17/2022 at 17:08:28.

 PROCESSING IMS OPTIONS
 END OF IMS OPTIONS

 PROCESSING IMS NONLINEAR
 END OF IMS NONLINEAR DATA
 ***UNDER-RELAXATION WILL NOT BE USED***
 
 ***IMS LINEAR SOLVER WILL BE USED***

 IMSLINEAR -- UNSTRUCTURED LINEAR SOLUTION PACKAGE, VERSION 8, 04/28/2017

 PROCESSING LINEAR DATA
 END OF LINEAR DATA
 
 An asymmetric matrix will be solved

 OUTER ITERATION CONVERGENCE CRITERION    (DVCLOSE) =    0.100000E-08
 MAXIMUM NUMBER OF OUTER ITERATIONS        (MXITER) = 500
 SOLVER PRINTOUT INDEX                     (IPRIMS) = 1
 NONLINEAR ITERATION METHOD            (NONLINMETH) = 0
 LINEAR SOLUTION METHOD                   (LINMETH) = 1

       SOLUTION BY THE BICONJUGATE-GRADIENT STABILIZED METHOD
 ------------------------------------------------------------------
 MAXIMUM OF 500 CALLS OF SOLUTION ROUTINE
 MAXIMUM OF 100 INTERNAL ITERATIONS PER CALL TO SOLUTION ROUTINE
 LINEAR ACCELERATION METHOD            = BCGS      
 MATRIX PRECONDITIONING TYPE           = INCOMPLETE LU       
 MATRIX SCALING APPROACH               = NO SCALING          
 MATRIX REORDERING APPROACH            = ORIGINAL ORDERING        
 NUMBER OF ORTHOGONALIZATIONS          = 0
 HEAD CHANGE CRITERION FOR CLOSURE     =    0.10000E-08
 RESIDUAL CHANGE CRITERION FOR CLOSURE =    0.10000E-05
 RESIDUAL CONVERGENCE OPTION           = 1
 RESIDUAL CONVERGENCE NORM             = INFINITY NORM S 
 RELAXATION FACTOR                     =    0.00000E+00



 
    Solving:  Stress period:     1    Time step:     1
 
1
                            STRESS PERIOD NO. 1, LENGTH =   1.000000    
                            -----------------------------------------------
                            NUMBER OF TIME STEPS = 1
                            MULTIPLIER FOR DELT =     1.000
                            INITIAL TIME STEP SIZE =   1.000000    



 PSEUDO-TRANSIENT CONTINUATION WILL BE APPLIED TO MODEL 1 ("GWF") DURING THIS TIME STEP

 SLN_1 OUTER ITERATION SUMMARY
 ----------------------------------------------------------------------------------------------------------
                                OUTER      INNER                    STEP   MAXIMUM CHANGE MODEL-(CELLID) OR
 OUTER ITERATION STEP       ITERATION  ITERATION  MAXIMUM CHANGE SUCCESS             MODEL-PACKAGE-(NUMBER)
 ----------------------------------------------------------------------------------------------------------
 Model                              1         10      -5.9075914                             1_GWF-(1,12,9)
 Model                              2         11      -4.3329268                             1_GWF-(1,15,6)
 Model                              3         11      -2.7526800                              1_GWF-(1,6,5)
 Model                              4         11     -0.99370432                             1_GWF-(1,10,6)
 Model                              5         11     -0.11641102                              1_GWF-(1,1,6)
 Model                              6         10 -1.53381942E-03                             1_GWF-(1,14,6)
 Model                              7          4 -2.77183954E-07                             1_GWF-(1,15,5)
 Model                              8          1  2.54561862E-10       *                     1_GWF-(1,15,5)
 ----------------------------------------------------------------------------------------------------------


 8 CALLS TO NUMERICAL SOLUTION IN TIME STEP 1 STRESS PERIOD 1
 69 TOTAL ITERATIONS
 
    Solving:  Stress period:     2    Time step:     1
 
1
                            STRESS PERIOD NO. 2, LENGTH =   1000.000    
                            -----------------------------------------------
                            NUMBER OF TIME STEPS = 100
                            MULTIPLIER FOR DELT =     1.000
                            INITIAL TIME STEP SIZE =   10.00000    

 SLN_1 OUTER ITERATION SUMMARY
 ----------------------------------------------------------------------------------------------------------
                                OUTER      INNER                    STEP   MAXIMUM CHANGE MODEL-(CELLID) OR
 OUTER ITERATION STEP       ITERATION  ITERATION  MAXIMUM CHANGE SUCCESS             MODEL-PACKAGE-(NUMBER)
 ----------------------------------------------------------------------------------------------------------
 Model                              1          3      -1.1324574                              1_GWF-(1,8,6)
 Model                              2          3      0.21215416                              1_GWF-(1,6,6)
 Model                              3          3 -4.86965345E-04                              1_GWF-(1,6,5)
 Model                              4          2 -3.96339087E-09                              1_GWF-(1,6,7)
 Model                              5          1 -5.79496629E-13       *                      1_GWF-(1,7,4)
 ----------------------------------------------------------------------------------------------------------


 5 CALLS TO NUMERICAL SOLUTION IN TIME STEP 1 STRESS PERIOD 2
 12 TOTAL ITERATIONS
 
    Solving:  Stress period:     2    Time step:     2
 

 SLN_1 OUTER ITERATION SUMMARY
 ----------------------------------------------------------------------------------------------------------
                                OUTER      INNER                    STEP   MAXIMUM CHANGE MODEL-(CELLID) OR
 OUTER ITERATION STEP       ITERATION  ITERATION  MAXIMUM CHANGE SUCCESS             MODEL-PACKAGE-(NUMBER)
 ----------------------------------------------------------------------------------------------------------
 Model                              1          3     -0.95735692                              1_GWF-(1,8,6)
 Model                              2          3 -9.97360986E-04                              1_GWF-(1,8,6)
 Model                              3          2  6.66259625E-09                              1_GWF-(1,8,6)
 Model                              4          1  1.00587941E-12       *                      1_GWF-(1,7,7)
 ----------------------------------------------------------------------------------------------------------


 4 CALLS TO NUMERICAL SOLUTION IN TIME STEP 2 STRESS PERIOD 2
 9 TOTAL ITERATIONS
 
    Solving:  Stress period:     2    Time step:     3
 

 SLN_1 OUTER ITERATION SUMMARY
 ----------------------------------------------------------------------------------------------------------
                                OUTER      INNER                    STEP   MAXIMUM CHANGE MODEL-(CELLID) OR
 OUTER ITERATION STEP       ITERATION  ITERATION  MAXIMUM CHANGE SUCCESS             MODEL-PACKAGE-(NUMBER)
 ----------------------------------------------------------------------------------------------------------
 Model                              1          3     -0.81752079                              1_GWF-(1,8,6)
 Model                              2          3 -1.01640178E-03                              1_GWF-(1,8,6)
 Model                              3          2  6.44636788E-09                              1_GWF-(1,8,6)
 Model                              4          1  8.62580840E-13       *                      1_GWF-(1,7,7)
 ----------------------------------------------------------------------------------------------------------


 4 CALLS TO NUMERICAL SOLUTION IN TIME STEP 3 STRESS PERIOD 2
 9 TOTAL ITERATIONS
 
    Solving:  Stress period:     2    Time step:     4
 

 SLN_1 OUTER ITERATION SUMMARY
 ----------------------------------------------------------------------------------------------------------
                                OUTER      INNER                    STEP   MAXIMUM CHANGE MODEL-(CELLID) OR
 OUTER ITERATION STEP       ITERATION  ITERATION  MAXIMUM CHANGE SUCCESS             MODEL-PACKAGE-(NUMBER)
 ----------------------------------------------------------------------------------------------------------
 Model                              1          3     -0.70474801                              1_GWF-(1,8,6)
 Model                              2          3 -9.37313543E-04                              1_GWF-(1,8,6)
 Model                              3          2  5.23610577E-09                              1_GWF-(1,8,6)
 Model                              4          1  5.47614037E-13       *                      1_GWF-(1,7,7)
 ----------------------------------------------------------------------------------------------------------


 4 CALLS TO NUMERICAL SOLUTION IN TIME STEP 4 STRESS PERIOD 2
 9 TOTAL ITERATIONS
 
    Solving:  Stress period:     2    Time step:     5
 

 SLN_1 OUTER ITERATION SUMMARY
 ----------------------------------------------------------------------------------------------------------
                                OUTER      INNER                    STEP   MAXIMUM CHANGE MODEL-(CELLID) OR
 OUTER ITERATION STEP       ITERATION  ITERATION  MAXIMUM CHANGE SUCCESS             MODEL-PACKAGE-(NUMBER)
 ----------------------------------------------------------------------------------------------------------
 Model                              1          3     -0.61316772                              1_GWF-(1,8,6)
 Model                              2          3 -8.24821275E-04                              1_GWF-(1,8,6)
 Model                              3          2  3.89154931E-09                              1_GWF-(1,8,6)
 Model                              4          1  2.65027583E-13       *                      1_GWF-(1,7,7)
 ----------------------------------------------------------------------------------------------------------


 4 CALLS TO NUMERICAL SOLUTION IN TIME STEP 5 STRESS PERIOD 2
 9 TOTAL ITERATIONS
 
    Solving:  Stress period:     2    Time step:     6
 

 SLN_1 OUTER ITERATION SUMMARY
 ----------------------------------------------------------------------------------------------------------
                                OUTER      INNER                    STEP   MAXIMUM CHANGE MODEL-(CELLID) OR
 OUTER ITERATION STEP       ITERATION  ITERATION  MAXIMUM CHANGE SUCCESS             MODEL-PACKAGE-(NUMBER)
 ----------------------------------------------------------------------------------------------------------
 Model                              1          3     -0.53818828                              1_GWF-(1,8,6)
 Model                              2          3 -7.09148095E-04                              1_GWF-(1,8,6)
 Model                              3          2  2.75755774E-09                              1_GWF-(1,8,6)
 Model                              4          1  1.03526562E-13       *                      1_GWF-(1,7,7)
 ----------------------------------------------------------------------------------------------------------


 4 CALLS TO NUMERICAL SOLUTION IN TIME STEP 6 STRESS PERIOD 2
 9 TOTAL ITERATIONS
 
    Solving:  Stress period:     2    Time step:     7
 

 SLN_1 OUTER ITERATION SUMMARY
 ----------------------------------------------------------------------------------------------------------
                                OUTER      INNER                    STEP   MAXIMUM CHANGE MODEL-(CELLID) OR
 OUTER ITERATION STEP       ITERATION  ITERATION  MAXIMUM CHANGE SUCCESS             MODEL-PACKAGE-(NUMBER)
 ----------------------------------------------------------------------------------------------------------
 Model                              1          3     -0.47625589                              1_GWF-(1,8,6)
 Model                              2          3 -6.03026633E-04                              1_GWF-(1,8,6)
 Model                              3          2  1.90602201E-09                              1_GWF-(1,8,6)
 Model                              4          1  3.52079477E-14       *                      1_GWF-(1,7,7)
 ----------------------------------------------------------------------------------------------------------


 4 CALLS TO NUMERICAL SOLUTION IN TIME STEP 7 STRESS PERIOD 2
 9 TOTAL ITERATIONS
 
    Solving:  Stress period:     2    Time step:     8
 

 SLN_1 OUTER ITERATION SUMMARY
 ----------------------------------------------------------------------------------------------------------
                                OUTER      INNER                    STEP   MAXIMUM CHANGE MODEL-(CELLID) OR
 OUTER ITERATION STEP       ITERATION  ITERATION  MAXIMUM CHANGE SUCCESS             MODEL-PACKAGE-(NUMBER)
 ----------------------------------------------------------------------------------------------------------
 Model                              1          3     -0.42463311                              1_GWF-(1,8,6)
 Model                              2          3 -5.10686420E-04                              1_GWF-(1,8,6)
 Model                              3          2  1.30278632E-09                              1_GWF-(1,8,6)
 Model                              4          1  1.12095663E-14       *                      1_GWF-(1,7,7)
 ----------------------------------------------------------------------------------------------------------


 4 CALLS TO NUMERICAL SOLUTION IN TIME STEP 8 STRESS PERIOD 2
 9 TOTAL ITERATIONS
 
    Solving:  Stress period:     2    Time step:     9
 

 SLN_1 OUTER ITERATION SUMMARY
 ----------------------------------------------------------------------------------------------------------
                                OUTER      INNER                    STEP   MAXIMUM CHANGE MODEL-(CELLID) OR
 OUTER ITERATION STEP       ITERATION  ITERATION  MAXIMUM CHANGE SUCCESS             MODEL-PACKAGE-(NUMBER)
 ----------------------------------------------------------------------------------------------------------
 Model                              1          3     -0.38121285                              1_GWF-(1,8,6)
 Model                              2          3 -4.32459271E-04                              1_GWF-(1,8,6)
 Model                              3          1  8.85044926E-10       *                      1_GWF-(1,8,6)
 ----------------------------------------------------------------------------------------------------------


 3 CALLS TO NUMERICAL SOLUTION IN TIME STEP 9 STRESS PERIOD 2
 7 TOTAL ITERATIONS
 
    Solving:  Stress period:     2    Time step:    10
 

 SLN_1 OUTER ITERATION SUMMARY
 ----------------------------------------------------------------------------------------------------------
                                OUTER      INNER                    STEP   MAXIMUM CHANGE MODEL-(CELLID) OR
 OUTER ITERATION STEP       ITERATION  ITERATION  MAXIMUM CHANGE SUCCESS             MODEL-PACKAGE-(NUMBER)
 ----------------------------------------------------------------------------------------------------------
 Model                              1          3     -0.34436990                              1_GWF-(1,8,6)
 Model                              2          3 -3.67062333E-04                              1_GWF-(1,8,6)
 Model                              3          1  6.02846661E-10       *                      1_GWF-(1,8,6)
 ----------------------------------------------------------------------------------------------------------


 3 CALLS TO NUMERICAL SOLUTION IN TIME STEP 10 STRESS PERIOD 2
 7 TOTAL ITERATIONS
 
    Solving:  Stress period:     2    Time step:    11
 

 SLN_1 OUTER ITERATION SUMMARY
 ----------------------------------------------------------------------------------------------------------
                                OUTER      INNER                    STEP   MAXIMUM CHANGE MODEL-(CELLID) OR
 OUTER ITERATION STEP       ITERATION  ITERATION  MAXIMUM CHANGE SUCCESS             MODEL-PACKAGE-(NUMBER)
 ----------------------------------------------------------------------------------------------------------
 Model                              1          3     -0.31284537                              1_GWF-(1,8,6)
 Model                              2          3 -3.12706111E-04                              1_GWF-(1,8,6)
 Model                              3          1  4.11735535E-10       *                      1_GWF-(1,8,6)
 ----------------------------------------------------------------------------------------------------------


 3 CALLS TO NUMERICAL SOLUTION IN TIME STEP 11 STRESS PERIOD 2
 7 TOTAL ITERATIONS
 
    Solving:  Stress period:     2    Time step:    12
 

 SLN_1 OUTER ITERATION SUMMARY
 ----------------------------------------------------------------------------------------------------------
                                OUTER      INNER                    STEP   MAXIMUM CHANGE MODEL-(CELLID) OR
 OUTER ITERATION STEP       ITERATION  ITERATION  MAXIMUM CHANGE SUCCESS             MODEL-PACKAGE-(NUMBER)
 ----------------------------------------------------------------------------------------------------------
 Model                              1          3     -0.28565860                              1_GWF-(1,8,6)
 Model                              2          3 -2.67586341E-04                              1_GWF-(1,8,6)
 Model                              3          1  2.81603185E-10       *                      1_GWF-(1,8,6)
 ----------------------------------------------------------------------------------------------------------


 3 CALLS TO NUMERICAL SOLUTION IN TIME STEP 12 STRESS PERIOD 2
 7 TOTAL ITERATIONS
 
    Solving:  Stress period:     2    Time step:    13
 

 SLN_1 OUTER ITERATION SUMMARY
 ----------------------------------------------------------------------------------------------------------
                                OUTER      INNER                    STEP   MAXIMUM CHANGE MODEL-(CELLID) OR
 OUTER ITERATION STEP       ITERATION  ITERATION  MAXIMUM CHANGE SUCCESS             MODEL-PACKAGE-(NUMBER)
 ----------------------------------------------------------------------------------------------------------
 Model                              1          3     -0.26204044                              1_GWF-(1,8,6)
 Model                              2          3 -2.30082188E-04                              1_GWF-(1,8,6)
 Model                              3          1  1.92041938E-10       *                      1_GWF-(1,8,6)
 ----------------------------------------------------------------------------------------------------------


 3 CALLS TO NUMERICAL SOLUTION IN TIME STEP 13 STRESS PERIOD 2
 7 TOTAL ITERATIONS
 
    Solving:  Stress period:     2    Time step:    14
 

 SLN_1 OUTER ITERATION SUMMARY
 ----------------------------------------------------------------------------------------------------------
                                OUTER      INNER                    STEP   MAXIMUM CHANGE MODEL-(CELLID) OR
 OUTER ITERATION STEP       ITERATION  ITERATION  MAXIMUM CHANGE SUCCESS             MODEL-PACKAGE-(NUMBER)
 ----------------------------------------------------------------------------------------------------------
 Model                              1          3     -0.24138308                              1_GWF-(1,8,6)
 Model                              2          3 -1.98814626E-04                              1_GWF-(1,8,6)
 Model                              3          1  1.29667832E-10       *                      1_GWF-(1,8,6)
 ----------------------------------------------------------------------------------------------------------


 3 CALLS TO NUMERICAL SOLUTION IN TIME STEP 14 STRESS PERIOD 2
 7 TOTAL ITERATIONS
 
    Solving:  Stress period:     2    Time step:    15
 

 SLN_1 OUTER ITERATION SUMMARY
 ----------------------------------------------------------------------------------------------------------
                                OUTER      INNER                    STEP   MAXIMUM CHANGE MODEL-(CELLID) OR
 OUTER ITERATION STEP       ITERATION  ITERATION  MAXIMUM CHANGE SUCCESS             MODEL-PACKAGE-(NUMBER)
 ----------------------------------------------------------------------------------------------------------
 Model                              1          3     -0.22320237                              1_GWF-(1,8,6)
 Model                              2          3 -1.72643183E-04                              1_GWF-(1,8,6)
 Model                              3          1  8.60032046E-11       *                      1_GWF-(1,8,6)
 ----------------------------------------------------------------------------------------------------------


 3 CALLS TO NUMERICAL SOLUTION IN TIME STEP 15 STRESS PERIOD 2
 7 TOTAL ITERATIONS
 
    Solving:  Stress period:     2    Time step:    16
 

 SLN_1 OUTER ITERATION SUMMARY
 ----------------------------------------------------------------------------------------------------------
                                OUTER      INNER                    STEP   MAXIMUM CHANGE MODEL-(CELLID) OR
 OUTER ITERATION STEP       ITERATION  ITERATION  MAXIMUM CHANGE SUCCESS             MODEL-PACKAGE-(NUMBER)
 ----------------------------------------------------------------------------------------------------------
 Model                              1          3     -0.20710947                              1_GWF-(1,8,6)
 Model                              2          3 -1.50638517E-04                              1_GWF-(1,8,6)
 Model                              3          1  5.56132917E-11       *                      1_GWF-(1,8,6)
 ----------------------------------------------------------------------------------------------------------


 3 CALLS TO NUMERICAL SOLUTION IN TIME STEP 16 STRESS PERIOD 2
 7 TOTAL ITERATIONS
 
    Solving:  Stress period:     2    Time step:    17
 

 SLN_1 OUTER ITERATION SUMMARY
 ----------------------------------------------------------------------------------------------------------
                                OUTER      INNER                    STEP   MAXIMUM CHANGE MODEL-(CELLID) OR
 OUTER ITERATION STEP       ITERATION  ITERATION  MAXIMUM CHANGE SUCCESS             MODEL-PACKAGE-(NUMBER)
 ----------------------------------------------------------------------------------------------------------
 Model                              1          3     -0.19278952                              1_GWF-(1,8,6)
 Model                              2          3  1.03564035E-02                              1_GWF-(1,8,6)
 Model                              3          3 -4.30576026E-03                             1_GWF-(1,10,6)
 Model                              4          3  6.83724929E-04                             1_GWF-(1,10,6)
 Model                              5          2  3.36908640E-06                             1_GWF-(1,10,6)
 Model                              6          2  1.62838512E-07                             1_GWF-(1,10,6)
 Model                              7          1  8.06475331E-10       *                     1_GWF-(1,10,6)
 ----------------------------------------------------------------------------------------------------------


 7 CALLS TO NUMERICAL SOLUTION IN TIME STEP 17 STRESS PERIOD 2
 17 TOTAL ITERATIONS
 
    Solving:  Stress period:     2    Time step:    18
 

 SLN_1 OUTER ITERATION SUMMARY
 ----------------------------------------------------------------------------------------------------------
                                OUTER      INNER                    STEP   MAXIMUM CHANGE MODEL-(CELLID) OR
 OUTER ITERATION STEP       ITERATION  ITERATION  MAXIMUM CHANGE SUCCESS             MODEL-PACKAGE-(NUMBER)
 ----------------------------------------------------------------------------------------------------------
 Model                              1          3     -0.14421509                              1_GWF-(1,8,6)
 Model                              2          3  1.09061173E-02                              1_GWF-(1,8,6)
 Model                              3          3 -1.43384487E-02                             1_GWF-(1,10,6)
 Model                              4          3  1.42831516E-03                             1_GWF-(1,10,6)
 Model                              5          2  1.21733276E-06                             1_GWF-(1,10,6)
 Model                              6          2  6.03847287E-07                             1_GWF-(1,10,6)
 Model                              7          1  5.68580072E-10       *                     1_GWF-(1,10,6)
 ----------------------------------------------------------------------------------------------------------


 7 CALLS TO NUMERICAL SOLUTION IN TIME STEP 18 STRESS PERIOD 2
 17 TOTAL ITERATIONS
 
    Solving:  Stress period:     2    Time step:    19
 

 SLN_1 OUTER ITERATION SUMMARY
 ----------------------------------------------------------------------------------------------------------
                                OUTER      INNER                    STEP   MAXIMUM CHANGE MODEL-(CELLID) OR
 OUTER ITERATION STEP       ITERATION  ITERATION  MAXIMUM CHANGE SUCCESS             MODEL-PACKAGE-(NUMBER)
 ----------------------------------------------------------------------------------------------------------
 Model                              1          3 -9.28875957E-02                              1_GWF-(1,8,6)
 Model                              2          3  3.63362485E-03                              1_GWF-(1,8,6)
 Model                              3          3 -1.38165368E-02                             1_GWF-(1,10,6)
 Model                              4          3  6.06224214E-04                             1_GWF-(1,10,6)
 Model                              5          2 -6.10068652E-06                             1_GWF-(1,10,6)
 Model                              6          2  3.11346518E-07                             1_GWF-(1,10,6)
 Model                              7          2 -3.05041570E-09                             1_GWF-(1,10,6)
 Model                              8          1  1.47324375E-10       *                     1_GWF-(1,10,6)
 ----------------------------------------------------------------------------------------------------------


 8 CALLS TO NUMERICAL SOLUTION IN TIME STEP 19 STRESS PERIOD 2
 19 TOTAL ITERATIONS
 
    Solving:  Stress period:     2    Time step:    20
 

 SLN_1 OUTER ITERATION SUMMARY
 ----------------------------------------------------------------------------------------------------------
                                OUTER      INNER                    STEP   MAXIMUM CHANGE MODEL-(CELLID) OR
 OUTER ITERATION STEP       ITERATION  ITERATION  MAXIMUM CHANGE SUCCESS             MODEL-PACKAGE-(NUMBER)
 ----------------------------------------------------------------------------------------------------------
 Model                              1          3 -5.97979730E-02                              1_GWF-(1,8,6)
 Model                              2          3  1.29163600E-03                              1_GWF-(1,8,6)
 Model                              3          3 -1.06523961E-02                             1_GWF-(1,10,6)
 Model                              4          3  2.43303699E-04                             1_GWF-(1,10,6)
 Model                              5          2 -5.70591488E-06                             1_GWF-(1,10,6)
 Model                              6          2  1.36994548E-07                             1_GWF-(1,10,6)
 Model                              7          2 -3.10589554E-09                             1_GWF-(1,10,6)
 Model                              8          1  6.08537665E-11       *                     1_GWF-(1,10,6)
 ----------------------------------------------------------------------------------------------------------


 8 CALLS TO NUMERICAL SOLUTION IN TIME STEP 20 STRESS PERIOD 2
 19 TOTAL ITERATIONS
 
    Solving:  Stress period:     2    Time step:    21
 

 SLN_1 OUTER ITERATION SUMMARY
 ----------------------------------------------------------------------------------------------------------
                                OUTER      INNER                    STEP   MAXIMUM CHANGE MODEL-(CELLID) OR
 OUTER ITERATION STEP       ITERATION  ITERATION  MAXIMUM CHANGE SUCCESS             MODEL-PACKAGE-(NUMBER)
 ----------------------------------------------------------------------------------------------------------
 Model                              1          3 -4.86220461E-02                              1_GWF-(1,8,5)
 Model                              2          3  5.10276656E-04                              1_GWF-(1,8,6)
 Model                              3          3 -7.74740341E-03                             1_GWF-(1,10,6)
 Model                              4          3  1.02958715E-04                             1_GWF-(1,10,6)
 Model                              5          2 -4.38913937E-06                             1_GWF-(1,10,6)
 Model                              6          2  6.09242474E-08                             1_GWF-(1,10,6)
 Model                              7          2 -2.49197507E-09                             1_GWF-(1,10,6)
 Model                              8          1  1.93283167E-11       *                     1_GWF-(1,10,6)
 ----------------------------------------------------------------------------------------------------------


 8 CALLS TO NUMERICAL SOLUTION IN TIME STEP 21 STRESS PERIOD 2
 19 TOTAL ITERATIONS
 
    Solving:  Stress period:     2    Time step:    22
 

 SLN_1 OUTER ITERATION SUMMARY
 ----------------------------------------------------------------------------------------------------------
                                OUTER      INNER                    STEP   MAXIMUM CHANGE MODEL-(CELLID) OR
 OUTER ITERATION STEP       ITERATION  ITERATION  MAXIMUM CHANGE SUCCESS             MODEL-PACKAGE-(NUMBER)
 ----------------------------------------------------------------------------------------------------------
 Model                              1          3 -4.36627811E-02                              1_GWF-(1,8,5)
 Model                              2          3  2.29809808E-04                              1_GWF-(1,8,6)
 Model                              3          3 -5.67046512E-03                             1_GWF-(1,10,6)
 Model                              4          2  4.84051715E-05                             1_GWF-(1,10,6)
 Model                              5          2 -3.29555541E-06                             1_GWF-(1,10,6)
 Model                              6          2  2.94771345E-08                             1_GWF-(1,10,6)
 Model                              7          2 -1.91481231E-09                             1_GWF-(1,10,6)
 Model                              8          1  4.81015228E-12       *                     1_GWF-(1,10,6)
 ----------------------------------------------------------------------------------------------------------


 8 CALLS TO NUMERICAL SOLUTION IN TIME STEP 22 STRESS PERIOD 2
 18 TOTAL ITERATIONS
 
    Solving:  Stress period:     2    Time step:    23
 

 SLN_1 OUTER ITERATION SUMMARY
 ----------------------------------------------------------------------------------------------------------
                                OUTER      INNER                    STEP   MAXIMUM CHANGE MODEL-(CELLID) OR
 OUTER ITERATION STEP       ITERATION  ITERATION  MAXIMUM CHANGE SUCCESS             MODEL-PACKAGE-(NUMBER)
 ----------------------------------------------------------------------------------------------------------
 Model                              1          3 -3.92936750E-02                              1_GWF-(1,8,5)
 Model                              2          2  1.18993457E-04                              1_GWF-(1,8,6)
 Model                              3          3 -4.29879791E-03                             1_GWF-(1,10,6)
 Model                              4          2  2.58106071E-05                             1_GWF-(1,10,6)
 Model                              5          2 -2.53363680E-06                             1_GWF-(1,10,6)
 Model                              6          2  1.59895224E-08                             1_GWF-(1,10,6)
 Model                              7          2 -1.49171164E-09                             1_GWF-(1,10,6)
 Model                              8          1  1.11954890E-12       *                     1_GWF-(1,10,6)
 ----------------------------------------------------------------------------------------------------------


 8 CALLS TO NUMERICAL SOLUTION IN TIME STEP 23 STRESS PERIOD 2
 17 TOTAL ITERATIONS
 
    Solving:  Stress period:     2    Time step:    24
 

 SLN_1 OUTER ITERATION SUMMARY
 ----------------------------------------------------------------------------------------------------------
                                OUTER      INNER                    STEP   MAXIMUM CHANGE MODEL-(CELLID) OR
 OUTER ITERATION STEP       ITERATION  ITERATION  MAXIMUM CHANGE SUCCESS             MODEL-PACKAGE-(NUMBER)
 ----------------------------------------------------------------------------------------------------------
 Model                              1          3 -3.54829543E-02                              1_GWF-(1,8,5)
 Model                              2          2  7.01541005E-05                              1_GWF-(1,8,6)
 Model                              3          3 -3.40726268E-03                             1_GWF-(1,10,6)
 Model                              4          2  1.55497819E-05                             1_GWF-(1,10,6)
 Model                              5          2 -2.02505146E-06                             1_GWF-(1,10,6)
 Model                              6          2  9.73397984E-09                             1_GWF-(1,10,6)
 Model                              7          2 -1.20174515E-09                             1_GWF-(1,10,6)
 Model                              8          1  3.07975867E-13       *                     1_GWF-(1,10,6)
 ----------------------------------------------------------------------------------------------------------


 8 CALLS TO NUMERICAL SOLUTION IN TIME STEP 24 STRESS PERIOD 2
 17 TOTAL ITERATIONS
 
    Solving:  Stress period:     2    Time step:    25
 

 SLN_1 OUTER ITERATION SUMMARY
 ----------------------------------------------------------------------------------------------------------
                                OUTER      INNER                    STEP   MAXIMUM CHANGE MODEL-(CELLID) OR
 OUTER ITERATION STEP       ITERATION  ITERATION  MAXIMUM CHANGE SUCCESS             MODEL-PACKAGE-(NUMBER)
 ----------------------------------------------------------------------------------------------------------
 Model                              1          3 -3.22922426E-02                              1_GWF-(1,9,6)
 Model                              2          2  4.60467138E-05                              1_GWF-(1,8,6)
 Model                              3          3 -2.81760238E-03                             1_GWF-(1,10,6)
 Model                              4          2  1.03805781E-05                             1_GWF-(1,10,6)
 Model                              5          2 -1.68331019E-06                             1_GWF-(1,10,6)
 Model                              6          2  6.54051324E-09                             1_GWF-(1,10,6)
 Model                              7          2 -1.00397046E-09                             1_GWF-(1,10,6)
 Model                              8          1  1.09690035E-13       *                     1_GWF-(1,10,7)
 ----------------------------------------------------------------------------------------------------------


 8 CALLS TO NUMERICAL SOLUTION IN TIME STEP 25 STRESS PERIOD 2
 17 TOTAL ITERATIONS
 
    Solving:  Stress period:     2    Time step:    26
 

 SLN_1 OUTER ITERATION SUMMARY
 ----------------------------------------------------------------------------------------------------------
                                OUTER      INNER                    STEP   MAXIMUM CHANGE MODEL-(CELLID) OR
 OUTER ITERATION STEP       ITERATION  ITERATION  MAXIMUM CHANGE SUCCESS             MODEL-PACKAGE-(NUMBER)
 ----------------------------------------------------------------------------------------------------------
 Model                              1          3 -3.08258567E-02                             1_GWF-(1,10,6)
 Model                              2          2  3.27827125E-05                              1_GWF-(1,8,6)
 Model                              3          3 -2.41280153E-03                             1_GWF-(1,10,6)
 Model                              4          2  7.49347694E-06                             1_GWF-(1,10,6)
 Model                              5          2 -1.44615940E-06                             1_GWF-(1,10,6)
 Model                              6          2  4.74120654E-09                             1_GWF-(1,10,6)
 Model                              7          1 -8.63652261E-10       *                     1_GWF-(1,10,6)
 ----------------------------------------------------------------------------------------------------------


 7 CALLS TO NUMERICAL SOLUTION IN TIME STEP 26 STRESS PERIOD 2
 15 TOTAL ITERATIONS
 
    Solving:  Stress period:     2    Time step:    27
 

 SLN_1 OUTER ITERATION SUMMARY
 ----------------------------------------------------------------------------------------------------------
                                OUTER      INNER                    STEP   MAXIMUM CHANGE MODEL-(CELLID) OR
 OUTER ITERATION STEP       ITERATION  ITERATION  MAXIMUM CHANGE SUCCESS             MODEL-PACKAGE-(NUMBER)
 ----------------------------------------------------------------------------------------------------------
 Model                              1          3 -3.02324656E-02                             1_GWF-(1,10,6)
 Model                              2          2  2.47437270E-05                              1_GWF-(1,8,6)
 Model                              3          3 -2.12143680E-03                             1_GWF-(1,10,6)
 Model                              4          2  5.72253751E-06                             1_GWF-(1,10,6)
 Model                              5          2 -1.27404156E-06                             1_GWF-(1,10,6)
 Model                              6          2  3.63069108E-09                             1_GWF-(1,10,6)
 Model                              7          1 -7.61982699E-10       *                     1_GWF-(1,10,6)
 ----------------------------------------------------------------------------------------------------------


 7 CALLS TO NUMERICAL SOLUTION IN TIME STEP 27 STRESS PERIOD 2
 15 TOTAL ITERATIONS
 
    Solving:  Stress period:     2    Time step:    28
 

 SLN_1 OUTER ITERATION SUMMARY
 ----------------------------------------------------------------------------------------------------------
                                OUTER      INNER                    STEP   MAXIMUM CHANGE MODEL-(CELLID) OR
 OUTER ITERATION STEP       ITERATION  ITERATION  MAXIMUM CHANGE SUCCESS             MODEL-PACKAGE-(NUMBER)
 ----------------------------------------------------------------------------------------------------------
 Model                              1          3 -2.94919072E-02                             1_GWF-(1,10,6)
 Model                              2          2  1.94616967E-05                              1_GWF-(1,8,6)
 Model                              3          3 -1.90117409E-03                             1_GWF-(1,10,6)
 Model                              4          2  4.54679271E-06                             1_GWF-(1,10,6)
 Model                              5          2 -1.14302162E-06                             1_GWF-(1,10,6)
 Model                              6          2  2.88997137E-09                             1_GWF-(1,10,6)
 Model                              7          1 -6.84020618E-10       *                     1_GWF-(1,10,6)
 ----------------------------------------------------------------------------------------------------------


 7 CALLS TO NUMERICAL SOLUTION IN TIME STEP 28 STRESS PERIOD 2
 15 TOTAL ITERATIONS
 
    Solving:  Stress period:     2    Time step:    29
 

 SLN_1 OUTER ITERATION SUMMARY
 ----------------------------------------------------------------------------------------------------------
                                OUTER      INNER                    STEP   MAXIMUM CHANGE MODEL-(CELLID) OR
 OUTER ITERATION STEP       ITERATION  ITERATION  MAXIMUM CHANGE SUCCESS             MODEL-PACKAGE-(NUMBER)
 ----------------------------------------------------------------------------------------------------------
 Model                              1          3 -2.86790802E-02                             1_GWF-(1,10,6)
 Model                              2          2  1.57619416E-05                              1_GWF-(1,8,6)
 Model                              3          3 -1.72707698E-03                             1_GWF-(1,10,6)
 Model                              4          2  3.71543267E-06                             1_GWF-(1,10,6)
 Model                              5          2 -1.03884277E-06                             1_GWF-(1,10,6)
 Model                              6          2  2.36425501E-09                             1_GWF-(1,10,6)
 Model                              7          1 -6.21618756E-10       *                     1_GWF-(1,10,6)
 ----------------------------------------------------------------------------------------------------------


 7 CALLS TO NUMERICAL SOLUTION IN TIME STEP 29 STRESS PERIOD 2
 15 TOTAL ITERATIONS
 
    Solving:  Stress period:     2    Time step:    30
 

 SLN_1 OUTER ITERATION SUMMARY
 ----------------------------------------------------------------------------------------------------------
                                OUTER      INNER                    STEP   MAXIMUM CHANGE MODEL-(CELLID) OR
 OUTER ITERATION STEP       ITERATION  ITERATION  MAXIMUM CHANGE SUCCESS             MODEL-PACKAGE-(NUMBER)
 ----------------------------------------------------------------------------------------------------------
 Model                              1          3 -2.78378621E-02                             1_GWF-(1,10,6)
 Model                              2          2  1.30408095E-05                              1_GWF-(1,8,6)
 Model                              3          3 -1.58431421E-03                             1_GWF-(1,10,6)
 Model                              4          2  3.09856771E-06                             1_GWF-(1,10,6)
 Model                              5          2 -9.52974455E-07                             1_GWF-(1,10,6)
 Model                              6          2  1.97297545E-09                             1_GWF-(1,10,6)
 Model                              7          1 -5.69888248E-10       *                     1_GWF-(1,10,6)
 ----------------------------------------------------------------------------------------------------------


 7 CALLS TO NUMERICAL SOLUTION IN TIME STEP 30 STRESS PERIOD 2
 15 TOTAL ITERATIONS
 
    Solving:  Stress period:     2    Time step:    31
 

 SLN_1 OUTER ITERATION SUMMARY
 ----------------------------------------------------------------------------------------------------------
                                OUTER      INNER                    STEP   MAXIMUM CHANGE MODEL-(CELLID) OR
 OUTER ITERATION STEP       ITERATION  ITERATION  MAXIMUM CHANGE SUCCESS             MODEL-PACKAGE-(NUMBER)
 ----------------------------------------------------------------------------------------------------------
 Model                              1          3 -2.69939473E-02                             1_GWF-(1,10,6)
 Model                              2          2  1.09647288E-05                              1_GWF-(1,8,6)
 Model                              3          3 -1.46386348E-03                             1_GWF-(1,10,6)
 Model                              4          2  2.62402893E-06                             1_GWF-(1,10,6)
 Model                              5          2 -8.80210618E-07                             1_GWF-(1,10,6)
 Model                              6          2  1.67120240E-09                             1_GWF-(1,10,6)
 Model                              7          1 -5.25830046E-10       *                     1_GWF-(1,10,6)
 ----------------------------------------------------------------------------------------------------------


 7 CALLS TO NUMERICAL SOLUTION IN TIME STEP 31 STRESS PERIOD 2
 15 TOTAL ITERATIONS
 
    Solving:  Stress period:     2    Time step:    32
 

 SLN_1 OUTER ITERATION SUMMARY
 ----------------------------------------------------------------------------------------------------------
                                OUTER      INNER                    STEP   MAXIMUM CHANGE MODEL-(CELLID) OR
 OUTER ITERATION STEP       ITERATION  ITERATION  MAXIMUM CHANGE SUCCESS             MODEL-PACKAGE-(NUMBER)
 ----------------------------------------------------------------------------------------------------------
 Model                              1          3 -2.61623021E-02                             1_GWF-(1,10,6)
 Model                              2          2  9.33651363E-06                              1_GWF-(1,8,6)
 Model                              3          3 -1.36005045E-03                             1_GWF-(1,10,6)
 Model                              4          2  2.24896835E-06                             1_GWF-(1,10,6)
 Model                              5          2 -8.17270664E-07                             1_GWF-(1,10,6)
 Model                              6          2  1.43219181E-09                             1_GWF-(1,10,6)
 Model                              7          1 -4.87549778E-10       *                     1_GWF-(1,10,6)
 ----------------------------------------------------------------------------------------------------------


 7 CALLS TO NUMERICAL SOLUTION IN TIME STEP 32 STRESS PERIOD 2
 15 TOTAL ITERATIONS
 
    Solving:  Stress period:     2    Time step:    33
 

 SLN_1 OUTER ITERATION SUMMARY
 ----------------------------------------------------------------------------------------------------------
                                OUTER      INNER                    STEP   MAXIMUM CHANGE MODEL-(CELLID) OR
 OUTER ITERATION STEP       ITERATION  ITERATION  MAXIMUM CHANGE SUCCESS             MODEL-PACKAGE-(NUMBER)
 ----------------------------------------------------------------------------------------------------------
 Model                              1          3 -2.53514981E-02                             1_GWF-(1,10,6)
 Model                              2          2  8.03232372E-06                              1_GWF-(1,8,6)
 Model                              3          3 -1.26915634E-03                             1_GWF-(1,10,6)
 Model                              4          2  1.94636432E-06                             1_GWF-(1,10,6)
 Model                              5          2 -7.62000646E-07                             1_GWF-(1,10,6)
 Model                              6          2  1.23901622E-09                             1_GWF-(1,10,6)
 Model                              7          1 -4.53800109E-10       *                     1_GWF-(1,10,6)
 ----------------------------------------------------------------------------------------------------------


 7 CALLS TO NUMERICAL SOLUTION IN TIME STEP 33 STRESS PERIOD 2
 15 TOTAL ITERATIONS
 
    Solving:  Stress period:     2    Time step:    34
 

 SLN_1 OUTER ITERATION SUMMARY
 ----------------------------------------------------------------------------------------------------------
                                OUTER      INNER                    STEP   MAXIMUM CHANGE MODEL-(CELLID) OR
 OUTER ITERATION STEP       ITERATION  ITERATION  MAXIMUM CHANGE SUCCESS             MODEL-PACKAGE-(NUMBER)
 ----------------------------------------------------------------------------------------------------------
 Model                              1          3 -2.45662501E-02                             1_GWF-(1,10,6)
 Model                              2          2  6.97021396E-06                              1_GWF-(1,8,6)
 Model                              3          3 -1.18863145E-03                             1_GWF-(1,10,6)
 Model                              4          2  1.69825719E-06                             1_GWF-(1,10,6)
 Model                              5          2 -7.12920130E-07                             1_GWF-(1,10,6)
 Model                              6          2  1.08042830E-09                             1_GWF-(1,10,6)
 Model                              7          1 -4.23742264E-10       *                     1_GWF-(1,10,6)
 ----------------------------------------------------------------------------------------------------------


 7 CALLS TO NUMERICAL SOLUTION IN TIME STEP 34 STRESS PERIOD 2
 15 TOTAL ITERATIONS
 
    Solving:  Stress period:     2    Time step:    35
 

 SLN_1 OUTER ITERATION SUMMARY
 ----------------------------------------------------------------------------------------------------------
                                OUTER      INNER                    STEP   MAXIMUM CHANGE MODEL-(CELLID) OR
 OUTER ITERATION STEP       ITERATION  ITERATION  MAXIMUM CHANGE SUCCESS             MODEL-PACKAGE-(NUMBER)
 ----------------------------------------------------------------------------------------------------------
 Model                              1          3 -2.38089212E-02                             1_GWF-(1,10,6)
 Model                              2          2  6.09355763E-06                              1_GWF-(1,8,6)
 Model                              3          3 -1.11664776E-03                             1_GWF-(1,10,6)
 Model                              4          2  1.49217534E-06                             1_GWF-(1,10,6)
 Model                              5          2 -6.68964092E-07                             1_GWF-(1,10,6)
 Model                              6          1  9.47044332E-10       *                     1_GWF-(1,10,6)
 ----------------------------------------------------------------------------------------------------------


 6 CALLS TO NUMERICAL SOLUTION IN TIME STEP 35 STRESS PERIOD 2
 13 TOTAL ITERATIONS
 
    Solving:  Stress period:     2    Time step:    36
 

 SLN_1 OUTER ITERATION SUMMARY
 ----------------------------------------------------------------------------------------------------------
                                OUTER      INNER                    STEP   MAXIMUM CHANGE MODEL-(CELLID) OR
 OUTER ITERATION STEP       ITERATION  ITERATION  MAXIMUM CHANGE SUCCESS             MODEL-PACKAGE-(NUMBER)
 ----------------------------------------------------------------------------------------------------------
 Model                              1          3 -2.30804301E-02                             1_GWF-(1,10,6)
 Model                              2          2  5.36182617E-06                              1_GWF-(1,8,6)
 Model                              3          3 -1.05184038E-03                             1_GWF-(1,10,6)
 Model                              4          2  1.31914513E-06                             1_GWF-(1,10,6)
 Model                              5          2 -6.29333903E-07                             1_GWF-(1,10,6)
 Model                              6          1  8.36050895E-10       *                     1_GWF-(1,10,6)
 ----------------------------------------------------------------------------------------------------------


 6 CALLS TO NUMERICAL SOLUTION IN TIME STEP 36 STRESS PERIOD 2
 13 TOTAL ITERATIONS
 
    Solving:  Stress period:     2    Time step:    37
 

 SLN_1 OUTER ITERATION SUMMARY
 ----------------------------------------------------------------------------------------------------------
                                OUTER      INNER                    STEP   MAXIMUM CHANGE MODEL-(CELLID) OR
 OUTER ITERATION STEP       ITERATION  ITERATION  MAXIMUM CHANGE SUCCESS             MODEL-PACKAGE-(NUMBER)
 ----------------------------------------------------------------------------------------------------------
 Model                              1          3 -2.23808066E-02                             1_GWF-(1,10,6)
 Model                              2          2  4.74518678E-06                              1_GWF-(1,8,6)
 Model                              3          3 -9.93154522E-04                             1_GWF-(1,10,6)
 Model                              4          2  1.17252424E-06                             1_GWF-(1,10,6)
 Model                              5          2 -5.93409367E-07                             1_GWF-(1,10,6)
 Model                              6          1  7.41910533E-10       *                     1_GWF-(1,10,6)
 ----------------------------------------------------------------------------------------------------------


 6 CALLS TO NUMERICAL SOLUTION IN TIME STEP 37 STRESS PERIOD 2
 13 TOTAL ITERATIONS
 
    Solving:  Stress period:     2    Time step:    38
 

 SLN_1 OUTER ITERATION SUMMARY
 ----------------------------------------------------------------------------------------------------------
                                OUTER      INNER                    STEP   MAXIMUM CHANGE MODEL-(CELLID) OR
 OUTER ITERATION STEP       ITERATION  ITERATION  MAXIMUM CHANGE SUCCESS             MODEL-PACKAGE-(NUMBER)
 ----------------------------------------------------------------------------------------------------------
 Model                              1          3 -2.17095379E-02                             1_GWF-(1,10,6)
 Model                              2          2  4.22117970E-06                              1_GWF-(1,8,6)
 Model                              3          3 -9.39752122E-04                             1_GWF-(1,10,6)
 Model                              4          2  1.04728360E-06                             1_GWF-(1,10,6)
 Model                              5          2 -5.60695148E-07                             1_GWF-(1,10,6)
 Model                              6          1  6.61435906E-10       *                     1_GWF-(1,10,6)
 ----------------------------------------------------------------------------------------------------------


 6 CALLS TO NUMERICAL SOLUTION IN TIME STEP 38 STRESS PERIOD 2
 13 TOTAL ITERATIONS
 
    Solving:  Stress period:     2    Time step:    39
 

 SLN_1 OUTER ITERATION SUMMARY
 ----------------------------------------------------------------------------------------------------------
                                OUTER      INNER                    STEP   MAXIMUM CHANGE MODEL-(CELLID) OR
 OUTER ITERATION STEP       ITERATION  ITERATION  MAXIMUM CHANGE SUCCESS             MODEL-PACKAGE-(NUMBER)
 ----------------------------------------------------------------------------------------------------------
 Model                              1          3 -2.10657876E-02                             1_GWF-(1,10,6)
 Model                              2          2  3.77258309E-06                              1_GWF-(1,8,6)
 Model                              3          3 -8.90952560E-04                             1_GWF-(1,10,6)
 Model                              4          2  9.39545215E-07                             1_GWF-(1,10,6)
 Model                              5          2 -5.30786898E-07                             1_GWF-(1,10,6)
 Model                              6          1  5.92155436E-10       *                     1_GWF-(1,10,6)
 ----------------------------------------------------------------------------------------------------------


 6 CALLS TO NUMERICAL SOLUTION IN TIME STEP 39 STRESS PERIOD 2
 13 TOTAL ITERATIONS
 
    Solving:  Stress period:     2    Time step:    40
 

 SLN_1 OUTER ITERATION SUMMARY
 ----------------------------------------------------------------------------------------------------------
                                OUTER      INNER                    STEP   MAXIMUM CHANGE MODEL-(CELLID) OR
 OUTER ITERATION STEP       ITERATION  ITERATION  MAXIMUM CHANGE SUCCESS             MODEL-PACKAGE-(NUMBER)
 ----------------------------------------------------------------------------------------------------------
 Model                              1          3 -2.04485355E-02                             1_GWF-(1,10,6)
 Model                              2          2  3.38598944E-06                              1_GWF-(1,8,6)
 Model                              3          3 -8.46193594E-04                             1_GWF-(1,10,6)
 Model                              4          2  8.46273350E-07                             1_GWF-(1,10,6)
 Model                              5          2 -5.03348923E-07                             1_GWF-(1,10,6)
 Model                              6          1  5.32136890E-10       *                     1_GWF-(1,10,6)
 ----------------------------------------------------------------------------------------------------------


 6 CALLS TO NUMERICAL SOLUTION IN TIME STEP 40 STRESS PERIOD 2
 13 TOTAL ITERATIONS
 
    Solving:  Stress period:     2    Time step:    41
 

 SLN_1 OUTER ITERATION SUMMARY
 ----------------------------------------------------------------------------------------------------------
                                OUTER      INNER                    STEP   MAXIMUM CHANGE MODEL-(CELLID) OR
 OUTER ITERATION STEP       ITERATION  ITERATION  MAXIMUM CHANGE SUCCESS             MODEL-PACKAGE-(NUMBER)
 ----------------------------------------------------------------------------------------------------------
 Model                              1          3 -1.98566677E-02                             1_GWF-(1,10,6)
 Model                              2          2  3.05082490E-06                              1_GWF-(1,8,6)
 Model                              3          3 -8.05004491E-04                             1_GWF-(1,10,6)
 Model                              4          2  7.65061074E-07                             1_GWF-(1,10,6)
 Model                              5          2 -4.78098852E-07                             1_GWF-(1,10,6)
 Model                              6          1  4.79846385E-10       *                     1_GWF-(1,10,6)
 ----------------------------------------------------------------------------------------------------------


 6 CALLS TO NUMERICAL SOLUTION IN TIME STEP 41 STRESS PERIOD 2
 13 TOTAL ITERATIONS
 
    Solving:  Stress period:     2    Time step:    42
 

 SLN_1 OUTER ITERATION SUMMARY
 ----------------------------------------------------------------------------------------------------------
                                OUTER      INNER                    STEP   MAXIMUM CHANGE MODEL-(CELLID) OR
 OUTER ITERATION STEP       ITERATION  ITERATION  MAXIMUM CHANGE SUCCESS             MODEL-PACKAGE-(NUMBER)
 ----------------------------------------------------------------------------------------------------------
 Model                              1          3 -1.92890345E-02                             1_GWF-(1,10,6)
 Model                              2          2  2.75865639E-06                              1_GWF-(1,8,6)
 Model                              3          3 -7.66986857E-04                             1_GWF-(1,10,6)
 Model                              4          2  6.93978901E-07                             1_GWF-(1,10,6)
 Model                              5          2 -4.54796659E-07                             1_GWF-(1,10,6)
 Model                              6          1  4.34049352E-10       *                     1_GWF-(1,10,6)
 ----------------------------------------------------------------------------------------------------------


 6 CALLS TO NUMERICAL SOLUTION IN TIME STEP 42 STRESS PERIOD 2
 13 TOTAL ITERATIONS
 
    Solving:  Stress period:     2    Time step:    43
 

 SLN_1 OUTER ITERATION SUMMARY
 ----------------------------------------------------------------------------------------------------------
                                OUTER      INNER                    STEP   MAXIMUM CHANGE MODEL-(CELLID) OR
 OUTER ITERATION STEP       ITERATION  ITERATION  MAXIMUM CHANGE SUCCESS             MODEL-PACKAGE-(NUMBER)
 ----------------------------------------------------------------------------------------------------------
 Model                              1          3 -1.87444872E-02                             1_GWF-(1,10,6)
 Model                              2          2  2.50269123E-06                              1_GWF-(1,8,6)
 Model                              3          3 -7.31800512E-04                             1_GWF-(1,10,6)
 Model                              4          2  6.31465004E-07                             1_GWF-(1,10,6)
 Model                              5          2 -4.33236573E-07                             1_GWF-(1,10,6)
 Model                              6          1  3.93736044E-10       *                     1_GWF-(1,10,6)
 ----------------------------------------------------------------------------------------------------------


 6 CALLS TO NUMERICAL SOLUTION IN TIME STEP 43 STRESS PERIOD 2
 13 TOTAL ITERATIONS
 
    Solving:  Stress period:     2    Time step:    44
 

 SLN_1 OUTER ITERATION SUMMARY
 ----------------------------------------------------------------------------------------------------------
                                OUTER      INNER                    STEP   MAXIMUM CHANGE MODEL-(CELLID) OR
 OUTER ITERATION STEP       ITERATION  ITERATION  MAXIMUM CHANGE SUCCESS             MODEL-PACKAGE-(NUMBER)
 ----------------------------------------------------------------------------------------------------------
 Model                              1          3 -1.82219014E-02                             1_GWF-(1,10,6)
 Model                              2          2  2.27740920E-06                              1_GWF-(1,8,6)
 Model                              3          3 -6.99152782E-04                             1_GWF-(1,10,6)
 Model                              4          2  5.76244146E-07                             1_GWF-(1,10,6)
 Model                              5          2 -4.13240908E-07                             1_GWF-(1,10,6)
 Model                              6          1  3.58097885E-10       *                     1_GWF-(1,10,6)
 ----------------------------------------------------------------------------------------------------------


 6 CALLS TO NUMERICAL SOLUTION IN TIME STEP 44 STRESS PERIOD 2
 13 TOTAL ITERATIONS
 
    Solving:  Stress period:     2    Time step:    45
 

 SLN_1 OUTER ITERATION SUMMARY
 ----------------------------------------------------------------------------------------------------------
                                OUTER      INNER                    STEP   MAXIMUM CHANGE MODEL-(CELLID) OR
 OUTER ITERATION STEP       ITERATION  ITERATION  MAXIMUM CHANGE SUCCESS             MODEL-PACKAGE-(NUMBER)
 ----------------------------------------------------------------------------------------------------------
 Model                              1          3 -1.77201911E-02                             1_GWF-(1,10,6)
 Model                              2          2  2.07829272E-06                              1_GWF-(1,8,6)
 Model                              3          3 -6.68790218E-04                             1_GWF-(1,10,6)
 Model                              4          2  5.27268080E-07                             1_GWF-(1,10,6)
 Model                              5          2 -3.94655275E-07                             1_GWF-(1,10,6)
 Model                              6          1  3.26455640E-10       *                     1_GWF-(1,10,6)
 ----------------------------------------------------------------------------------------------------------


 6 CALLS TO NUMERICAL SOLUTION IN TIME STEP 45 STRESS PERIOD 2
 13 TOTAL ITERATIONS
 
    Solving:  Stress period:     2    Time step:    46
 

 SLN_1 OUTER ITERATION SUMMARY
 ----------------------------------------------------------------------------------------------------------
                                OUTER      INNER                    STEP   MAXIMUM CHANGE MODEL-(CELLID) OR
 OUTER ITERATION STEP       ITERATION  ITERATION  MAXIMUM CHANGE SUCCESS             MODEL-PACKAGE-(NUMBER)
 ----------------------------------------------------------------------------------------------------------
 Model                              1          3 -1.72383148E-02                             1_GWF-(1,10,6)
 Model                              2          2  1.90159903E-06                              1_GWF-(1,8,6)
 Model                              3          3 -6.40492066E-04                             1_GWF-(1,10,6)
 Model                              4          2  4.83664301E-07                             1_GWF-(1,10,6)
 Model                              5          2 -3.77344814E-07                             1_GWF-(1,10,6)
 Model                              6          1  2.98254310E-10       *                     1_GWF-(1,10,6)
 ----------------------------------------------------------------------------------------------------------


 6 CALLS TO NUMERICAL SOLUTION IN TIME STEP 46 STRESS PERIOD 2
 13 TOTAL ITERATIONS
 
    Solving:  Stress period:     2    Time step:    47
 

 SLN_1 OUTER ITERATION SUMMARY
 ----------------------------------------------------------------------------------------------------------
                                OUTER      INNER                    STEP   MAXIMUM CHANGE MODEL-(CELLID) OR
 OUTER ITERATION STEP       ITERATION  ITERATION  MAXIMUM CHANGE SUCCESS             MODEL-PACKAGE-(NUMBER)
 ----------------------------------------------------------------------------------------------------------
 Model                              1          3 -1.67752825E-02                             1_GWF-(1,10,6)
 Model                              2          2  1.74423195E-06                              1_GWF-(1,8,6)
 Model                              3          3 -6.14065044E-04                             1_GWF-(1,10,6)
 Model                              4          2  4.44708309E-07                             1_GWF-(1,10,6)
 Model                              5          2 -3.61191114E-07                             1_GWF-(1,10,6)
 Model                              6          1  2.73025935E-10       *                     1_GWF-(1,10,6)
 ----------------------------------------------------------------------------------------------------------


 6 CALLS TO NUMERICAL SOLUTION IN TIME STEP 47 STRESS PERIOD 2
 13 TOTAL ITERATIONS
 
    Solving:  Stress period:     2    Time step:    48
 

 SLN_1 OUTER ITERATION SUMMARY
 ----------------------------------------------------------------------------------------------------------
                                OUTER      INNER                    STEP   MAXIMUM CHANGE MODEL-(CELLID) OR
 OUTER ITERATION STEP       ITERATION  ITERATION  MAXIMUM CHANGE SUCCESS             MODEL-PACKAGE-(NUMBER)
 ----------------------------------------------------------------------------------------------------------
 Model                              1          3 -1.63301558E-02                             1_GWF-(1,10,6)
 Model                              2          2  1.60359801E-06                              1_GWF-(1,8,6)
 Model                              3          3 -5.89339125E-04                             1_GWF-(1,10,6)
 Model                              4          2  4.09790748E-07                             1_GWF-(1,10,6)
 Model                              5          2 -3.46089762E-07                             1_GWF-(1,10,6)
 Model                              6          1  2.50375720E-10       *                     1_GWF-(1,10,6)
 ----------------------------------------------------------------------------------------------------------


 6 CALLS TO NUMERICAL SOLUTION IN TIME STEP 48 STRESS PERIOD 2
 13 TOTAL ITERATIONS
 
    Solving:  Stress period:     2    Time step:    49
 

 SLN_1 OUTER ITERATION SUMMARY
 ----------------------------------------------------------------------------------------------------------
                                OUTER      INNER                    STEP   MAXIMUM CHANGE MODEL-(CELLID) OR
 OUTER ITERATION STEP       ITERATION  ITERATION  MAXIMUM CHANGE SUCCESS             MODEL-PACKAGE-(NUMBER)
 ----------------------------------------------------------------------------------------------------------
 Model                              1          3 -1.59020478E-02                             1_GWF-(1,10,6)
 Model                              2          2  1.47751589E-06                              1_GWF-(1,8,6)
 Model                              3          3 -5.66164090E-04                             1_GWF-(1,10,6)
 Model                              4          2  3.78397133E-07                             1_GWF-(1,10,6)
 Model                              5          2 -3.31948296E-07                             1_GWF-(1,10,6)
 Model                              6          1  2.29976926E-10       *                     1_GWF-(1,10,6)
 ----------------------------------------------------------------------------------------------------------


 6 CALLS TO NUMERICAL SOLUTION IN TIME STEP 49 STRESS PERIOD 2
 13 TOTAL ITERATIONS
 
    Solving:  Stress period:     2    Time step:    50
 

 SLN_1 OUTER ITERATION SUMMARY
 ----------------------------------------------------------------------------------------------------------
                                OUTER      INNER                    STEP   MAXIMUM CHANGE MODEL-(CELLID) OR
 OUTER ITERATION STEP       ITERATION  ITERATION  MAXIMUM CHANGE SUCCESS             MODEL-PACKAGE-(NUMBER)
 ----------------------------------------------------------------------------------------------------------
 Model                              1          3 -1.54901220E-02                             1_GWF-(1,10,6)
 Model                              2          2  1.36414099E-06                              1_GWF-(1,8,6)
 Model                              3          3 -5.44406695E-04                             1_GWF-(1,10,6)
 Model                              4          2  3.50090799E-07                             1_GWF-(1,10,6)
 Model                              5          2 -3.18684551E-07                             1_GWF-(1,10,6)
 Model                              6          1  2.11544005E-10       *                     1_GWF-(1,10,6)
 ----------------------------------------------------------------------------------------------------------


 6 CALLS TO NUMERICAL SOLUTION IN TIME STEP 50 STRESS PERIOD 2
 13 TOTAL ITERATIONS
 
    Solving:  Stress period:     2    Time step:    51
 

 SLN_1 OUTER ITERATION SUMMARY
 ----------------------------------------------------------------------------------------------------------
                                OUTER      INNER                    STEP   MAXIMUM CHANGE MODEL-(CELLID) OR
 OUTER ITERATION STEP       ITERATION  ITERATION  MAXIMUM CHANGE SUCCESS             MODEL-PACKAGE-(NUMBER)
 ----------------------------------------------------------------------------------------------------------
 Model                              1          3 -1.50935897E-02                             1_GWF-(1,10,6)
 Model                              2          2  1.26190540E-06                              1_GWF-(1,8,6)
 Model                              3          3 -5.23948317E-04                             1_GWF-(1,10,6)
 Model                              4          2  3.24499270E-07                             1_GWF-(1,10,6)
 Model                              5          2 -3.06225250E-07                             1_GWF-(1,10,6)
 Model                              6          1  1.94845917E-10       *                     1_GWF-(1,10,6)
 ----------------------------------------------------------------------------------------------------------


 6 CALLS TO NUMERICAL SOLUTION IN TIME STEP 51 STRESS PERIOD 2
 13 TOTAL ITERATIONS
 
    Solving:  Stress period:     2    Time step:    52
 

 SLN_1 OUTER ITERATION SUMMARY
 ----------------------------------------------------------------------------------------------------------
                                OUTER      INNER                    STEP   MAXIMUM CHANGE MODEL-(CELLID) OR
 OUTER ITERATION STEP       ITERATION  ITERATION  MAXIMUM CHANGE SUCCESS             MODEL-PACKAGE-(NUMBER)
 ----------------------------------------------------------------------------------------------------------
 Model                              1          3 -1.47117083E-02                             1_GWF-(1,10,6)
 Model                              2          2  1.16947018E-06                              1_GWF-(1,8,6)
 Model                              3          3 -5.04682990E-04                             1_GWF-(1,10,6)
 Model                              4          2  3.01303399E-07                             1_GWF-(1,10,6)
 Model                              5          2 -2.94504832E-07                             1_GWF-(1,10,6)
 Model                              6          1  1.79673165E-10       *                     1_GWF-(1,10,6)
 ----------------------------------------------------------------------------------------------------------


 6 CALLS TO NUMERICAL SOLUTION IN TIME STEP 52 STRESS PERIOD 2
 13 TOTAL ITERATIONS
 
    Solving:  Stress period:     2    Time step:    53
 

 SLN_1 OUTER ITERATION SUMMARY
 ----------------------------------------------------------------------------------------------------------
                                OUTER      INNER                    STEP   MAXIMUM CHANGE MODEL-(CELLID) OR
 OUTER ITERATION STEP       ITERATION  ITERATION  MAXIMUM CHANGE SUCCESS             MODEL-PACKAGE-(NUMBER)
 ----------------------------------------------------------------------------------------------------------
 Model                              1          3 -1.43437783E-02                             1_GWF-(1,10,6)
 Model                              2          2  1.08568678E-06                              1_GWF-(1,8,6)
 Model                              3          3 -4.86515753E-04                             1_GWF-(1,10,6)
 Model                              4          2  2.80228493E-07                             1_GWF-(1,10,6)
 Model                              5          2 -2.83464458E-07                             1_GWF-(1,10,6)
 Model                              6          1  1.65853997E-10       *                     1_GWF-(1,10,6)
 ----------------------------------------------------------------------------------------------------------


 6 CALLS TO NUMERICAL SOLUTION IN TIME STEP 53 STRESS PERIOD 2
 13 TOTAL ITERATIONS
 
[...]


 6 CALLS TO NUMERICAL SOLUTION IN TIME STEP 86 STRESS PERIOD 2
 13 TOTAL ITERATIONS
 
    Solving:  Stress period:     2    Time step:    87
 

 SLN_1 OUTER ITERATION SUMMARY
 ----------------------------------------------------------------------------------------------------------
                                OUTER      INNER                    STEP   MAXIMUM CHANGE MODEL-(CELLID) OR
 OUTER ITERATION STEP       ITERATION  ITERATION  MAXIMUM CHANGE SUCCESS             MODEL-PACKAGE-(NUMBER)
 ----------------------------------------------------------------------------------------------------------
 Model                              1          3 -6.97408716E-03                             1_GWF-(1,10,6)
 Model                              2          2  1.65650146E-07                              1_GWF-(1,8,6)
 Model                              3          3 -1.90573636E-04                             1_GWF-(1,10,6)
 Model                              4          2  4.44120821E-08                             1_GWF-(1,10,6)
 Model                              5          2 -1.06452457E-07                             1_GWF-(1,10,6)
 Model                              6          1  1.15045196E-11       *                     1_GWF-(1,10,6)
 ----------------------------------------------------------------------------------------------------------


 6 CALLS TO NUMERICAL SOLUTION IN TIME STEP 87 STRESS PERIOD 2
 13 TOTAL ITERATIONS
 
    Solving:  Stress period:     2    Time step:    88
 

 SLN_1 OUTER ITERATION SUMMARY
 ----------------------------------------------------------------------------------------------------------
                                OUTER      INNER                    STEP   MAXIMUM CHANGE MODEL-(CELLID) OR
 OUTER ITERATION STEP       ITERATION  ITERATION  MAXIMUM CHANGE SUCCESS             MODEL-PACKAGE-(NUMBER)
 ----------------------------------------------------------------------------------------------------------
 Model                              1          3 -6.85036795E-03                             1_GWF-(1,10,6)
 Model                              2          2  1.58706298E-07                              1_GWF-(1,8,6)
 Model                              3          3 -1.86528174E-04                             1_GWF-(1,10,6)
 Model                              4          2  4.25755952E-08                             1_GWF-(1,10,6)
 Model                              5          2 -1.04093979E-07                             1_GWF-(1,10,6)
 Model                              6          1  1.05494502E-11       *                     1_GWF-(1,10,6)
 ----------------------------------------------------------------------------------------------------------


 6 CALLS TO NUMERICAL SOLUTION IN TIME STEP 88 STRESS PERIOD 2
 13 TOTAL ITERATIONS
 
    Solving:  Stress period:     2    Time step:    89
 

 SLN_1 OUTER ITERATION SUMMARY
 ----------------------------------------------------------------------------------------------------------
                                OUTER      INNER                    STEP   MAXIMUM CHANGE MODEL-(CELLID) OR
 OUTER ITERATION STEP       ITERATION  ITERATION  MAXIMUM CHANGE SUCCESS             MODEL-PACKAGE-(NUMBER)
 ----------------------------------------------------------------------------------------------------------
 Model                              1          3 -6.72988151E-03                             1_GWF-(1,10,6)
 Model                              2          2  1.52127884E-07                              1_GWF-(1,8,6)
 Model                              3          3 -1.82612706E-04                             1_GWF-(1,10,6)
 Model                              4          2  4.08344459E-08                             1_GWF-(1,10,6)
 Model                              5          2 -1.01813779E-07                             1_GWF-(1,10,6)
 Model                              6          1  9.66593472E-12       *                     1_GWF-(1,10,6)
 ----------------------------------------------------------------------------------------------------------


 6 CALLS TO NUMERICAL SOLUTION IN TIME STEP 89 STRESS PERIOD 2
 13 TOTAL ITERATIONS
 
    Solving:  Stress period:     2    Time step:    90
 

 SLN_1 OUTER ITERATION SUMMARY
 ----------------------------------------------------------------------------------------------------------
                                OUTER      INNER                    STEP   MAXIMUM CHANGE MODEL-(CELLID) OR
 OUTER ITERATION STEP       ITERATION  ITERATION  MAXIMUM CHANGE SUCCESS             MODEL-PACKAGE-(NUMBER)
 ----------------------------------------------------------------------------------------------------------
 Model                              1          3 -6.61251805E-03                             1_GWF-(1,10,6)
 Model                              2          2  1.45891740E-07                              1_GWF-(1,8,6)
 Model                              3          3 -1.78821575E-04                             1_GWF-(1,10,6)
 Model                              4          2  3.91826736E-08                             1_GWF-(1,10,6)
 Model                              5          2 -9.96083696E-08                             1_GWF-(1,10,6)
 Model                              6          1  8.84953222E-12       *                     1_GWF-(1,10,6)
 ----------------------------------------------------------------------------------------------------------


 6 CALLS TO NUMERICAL SOLUTION IN TIME STEP 90 STRESS PERIOD 2
 13 TOTAL ITERATIONS
 
    Solving:  Stress period:     2    Time step:    91
 

 SLN_1 OUTER ITERATION SUMMARY
 ----------------------------------------------------------------------------------------------------------
                                OUTER      INNER                    STEP   MAXIMUM CHANGE MODEL-(CELLID) OR
 OUTER ITERATION STEP       ITERATION  ITERATION  MAXIMUM CHANGE SUCCESS             MODEL-PACKAGE-(NUMBER)
 ----------------------------------------------------------------------------------------------------------
 Model                              1          3 -6.49817234E-03                             1_GWF-(1,10,6)
 Model                              2          2  1.39976418E-07                              1_GWF-(1,8,6)
 Model                              3          3 -1.75149430E-04                             1_GWF-(1,10,6)
 Model                              4          2  3.76147491E-08                             1_GWF-(1,10,6)
 Model                              5          2 -9.74744640E-08                             1_GWF-(1,10,6)
 Model                              6          1  8.09607936E-12       *                     1_GWF-(1,10,6)
 ----------------------------------------------------------------------------------------------------------


 6 CALLS TO NUMERICAL SOLUTION IN TIME STEP 91 STRESS PERIOD 2
 13 TOTAL ITERATIONS
 
    Solving:  Stress period:     2    Time step:    92
 

 SLN_1 OUTER ITERATION SUMMARY
 ----------------------------------------------------------------------------------------------------------
                                OUTER      INNER                    STEP   MAXIMUM CHANGE MODEL-(CELLID) OR
 OUTER ITERATION STEP       ITERATION  ITERATION  MAXIMUM CHANGE SUCCESS             MODEL-PACKAGE-(NUMBER)
 ----------------------------------------------------------------------------------------------------------
 Model                              1          3 -6.38674346E-03                             1_GWF-(1,10,6)
 Model                              2          2  1.34362026E-07                              1_GWF-(1,8,6)
 Model                              3          3 -1.71591209E-04                             1_GWF-(1,10,6)
 Model                              4          2  3.61255453E-08                             1_GWF-(1,10,6)
 Model                              5          2 -9.54089524E-08                             1_GWF-(1,10,6)
 Model                              6          1  7.40205119E-12       *                     1_GWF-(1,10,6)
 ----------------------------------------------------------------------------------------------------------


 6 CALLS TO NUMERICAL SOLUTION IN TIME STEP 92 STRESS PERIOD 2
 13 TOTAL ITERATIONS
 
    Solving:  Stress period:     2    Time step:    93
 

 SLN_1 OUTER ITERATION SUMMARY
 ----------------------------------------------------------------------------------------------------------
                                OUTER      INNER                    STEP   MAXIMUM CHANGE MODEL-(CELLID) OR
 OUTER ITERATION STEP       ITERATION  ITERATION  MAXIMUM CHANGE SUCCESS             MODEL-PACKAGE-(NUMBER)
 ----------------------------------------------------------------------------------------------------------
 Model                              1          3 -6.27813461E-03                             1_GWF-(1,10,6)
 Model                              2          2  1.29030132E-07                              1_GWF-(1,8,6)
 Model                              3          3 -1.68142119E-04                             1_GWF-(1,10,6)
 Model                              4          2  3.47102962E-08                             1_GWF-(1,10,6)
 Model                              5          2 -9.34088794E-08                             1_GWF-(1,10,6)
 Model                              6          1  6.76286804E-12       *                     1_GWF-(1,10,6)
 ----------------------------------------------------------------------------------------------------------


 6 CALLS TO NUMERICAL SOLUTION IN TIME STEP 93 STRESS PERIOD 2
 13 TOTAL ITERATIONS
 
    Solving:  Stress period:     2    Time step:    94
 

 SLN_1 OUTER ITERATION SUMMARY
 ----------------------------------------------------------------------------------------------------------
                                OUTER      INNER                    STEP   MAXIMUM CHANGE MODEL-(CELLID) OR
 OUTER ITERATION STEP       ITERATION  ITERATION  MAXIMUM CHANGE SUCCESS             MODEL-PACKAGE-(NUMBER)
 ----------------------------------------------------------------------------------------------------------
 Model                              1          3 -6.17225292E-03                             1_GWF-(1,10,6)
 Model                              2          2  1.23963613E-07                              1_GWF-(1,8,6)
 Model                              3          3 -1.64797619E-04                             1_GWF-(1,10,6)
 Model                              4          2  3.33645839E-08                             1_GWF-(1,10,6)
 Model                              5          2 -9.14714732E-08                             1_GWF-(1,10,6)
 Model                              6          1  6.17511597E-12       *                     1_GWF-(1,10,6)
 ----------------------------------------------------------------------------------------------------------


 6 CALLS TO NUMERICAL SOLUTION IN TIME STEP 94 STRESS PERIOD 2
 13 TOTAL ITERATIONS
 
    Solving:  Stress period:     2    Time step:    95
 

 SLN_1 OUTER ITERATION SUMMARY
 ----------------------------------------------------------------------------------------------------------
                                OUTER      INNER                    STEP   MAXIMUM CHANGE MODEL-(CELLID) OR
 OUTER ITERATION STEP       ITERATION  ITERATION  MAXIMUM CHANGE SUCCESS             MODEL-PACKAGE-(NUMBER)
 ----------------------------------------------------------------------------------------------------------
 Model                              1          3 -6.06900925E-03                             1_GWF-(1,10,6)
 Model                              2          2  1.19146565E-07                              1_GWF-(1,8,6)
 Model                              3          3 -1.61553403E-04                             1_GWF-(1,10,6)
 Model                              4          2  3.20842868E-08                             1_GWF-(1,10,6)
 Model                              5          2 -8.95940834E-08                             1_GWF-(1,10,6)
 Model                              6          1  5.63624147E-12       *                     1_GWF-(1,10,6)
 ----------------------------------------------------------------------------------------------------------


 6 CALLS TO NUMERICAL SOLUTION IN TIME STEP 95 STRESS PERIOD 2
 13 TOTAL ITERATIONS
 
    Solving:  Stress period:     2    Time step:    96
 

 SLN_1 OUTER ITERATION SUMMARY
 ----------------------------------------------------------------------------------------------------------
                                OUTER      INNER                    STEP   MAXIMUM CHANGE MODEL-(CELLID) OR
 OUTER ITERATION STEP       ITERATION  ITERATION  MAXIMUM CHANGE SUCCESS             MODEL-PACKAGE-(NUMBER)
 ----------------------------------------------------------------------------------------------------------
 Model                              1          3 -5.96831805E-03                             1_GWF-(1,10,6)
 Model                              2          2  1.14564187E-07                              1_GWF-(1,8,6)
 Model                              3          3 -1.58405387E-04                             1_GWF-(1,10,6)
 Model                              4          2  3.08655789E-08                             1_GWF-(1,10,6)
 Model                              5          2 -8.77742163E-08                             1_GWF-(1,10,6)
 Model                              6          1  5.14292775E-12       *                     1_GWF-(1,10,6)
 ----------------------------------------------------------------------------------------------------------


 6 CALLS TO NUMERICAL SOLUTION IN TIME STEP 96 STRESS PERIOD 2
 13 TOTAL ITERATIONS
 
    Solving:  Stress period:     2    Time step:    97
 

 SLN_1 OUTER ITERATION SUMMARY
 ----------------------------------------------------------------------------------------------------------
                                OUTER      INNER                    STEP   MAXIMUM CHANGE MODEL-(CELLID) OR
 OUTER ITERATION STEP       ITERATION  ITERATION  MAXIMUM CHANGE SUCCESS             MODEL-PACKAGE-(NUMBER)
 ----------------------------------------------------------------------------------------------------------
 Model                              1          3 -5.87009714E-03                             1_GWF-(1,10,6)
 Model                              2          2  1.10202715E-07                              1_GWF-(1,8,6)
 Model                              3          3 -1.55349694E-04                             1_GWF-(1,10,6)
 Model                              4          2  2.97048892E-08                             1_GWF-(1,10,6)
 Model                              5          2 -8.60094922E-08                             1_GWF-(1,10,6)
 Model                              6          1  4.68694528E-12       *                     1_GWF-(1,10,6)
 ----------------------------------------------------------------------------------------------------------


 6 CALLS TO NUMERICAL SOLUTION IN TIME STEP 97 STRESS PERIOD 2
 13 TOTAL ITERATIONS
 
    Solving:  Stress period:     2    Time step:    98
 

 SLN_1 OUTER ITERATION SUMMARY
 ----------------------------------------------------------------------------------------------------------
                                OUTER      INNER                    STEP   MAXIMUM CHANGE MODEL-(CELLID) OR
 OUTER ITERATION STEP       ITERATION  ITERATION  MAXIMUM CHANGE SUCCESS             MODEL-PACKAGE-(NUMBER)
 ----------------------------------------------------------------------------------------------------------
 Model                              1          3 -5.77426760E-03                             1_GWF-(1,10,6)
 Model                              2          2  1.06049320E-07                              1_GWF-(1,8,6)
 Model                              3          3 -1.52382641E-04                             1_GWF-(1,10,6)
 Model                              4          2  2.85988931E-08                             1_GWF-(1,10,6)
 Model                              5          2 -8.42976663E-08                             1_GWF-(1,10,6)
 Model                              6          1  4.27102798E-12       *                     1_GWF-(1,10,6)
 ----------------------------------------------------------------------------------------------------------


 6 CALLS TO NUMERICAL SOLUTION IN TIME STEP 98 STRESS PERIOD 2
 13 TOTAL ITERATIONS
 
    Solving:  Stress period:     2    Time step:    99
 

 SLN_1 OUTER ITERATION SUMMARY
 ----------------------------------------------------------------------------------------------------------
                                OUTER      INNER                    STEP   MAXIMUM CHANGE MODEL-(CELLID) OR
 OUTER ITERATION STEP       ITERATION  ITERATION  MAXIMUM CHANGE SUCCESS             MODEL-PACKAGE-(NUMBER)
 ----------------------------------------------------------------------------------------------------------
 Model                              1          3 -5.68075359E-03                             1_GWF-(1,10,6)
 Model                              2          2  1.02092047E-07                              1_GWF-(1,8,6)
 Model                              3          3 -1.49500731E-04                             1_GWF-(1,10,6)
 Model                              4          2  2.75444812E-08                             1_GWF-(1,10,6)
 Model                              5          2 -8.26365967E-08                             1_GWF-(1,10,6)
 Model                              6          1  3.89049903E-12       *                     1_GWF-(1,10,6)
 ----------------------------------------------------------------------------------------------------------


 6 CALLS TO NUMERICAL SOLUTION IN TIME STEP 99 STRESS PERIOD 2
 13 TOTAL ITERATIONS
 
    Solving:  Stress period:     2    Time step:   100
 

 SLN_1 OUTER ITERATION SUMMARY
 ----------------------------------------------------------------------------------------------------------
                                OUTER      INNER                    STEP   MAXIMUM CHANGE MODEL-(CELLID) OR
 OUTER ITERATION STEP       ITERATION  ITERATION  MAXIMUM CHANGE SUCCESS             MODEL-PACKAGE-(NUMBER)
 ----------------------------------------------------------------------------------------------------------
 Model                              1          3 -5.58948222E-03                             1_GWF-(1,10,6)
 Model                              2          2  9.83197328E-08                              1_GWF-(1,8,6)
 Model                              3          3 -1.46700635E-04                             1_GWF-(1,10,6)
 Model                              4          2  2.65387570E-08                             1_GWF-(1,10,6)
 Model                              5          2 -8.10242534E-08                             1_GWF-(1,10,6)
 Model                              6          1  3.54287433E-12       *                     1_GWF-(1,10,6)
 ----------------------------------------------------------------------------------------------------------


 6 CALLS TO NUMERICAL SOLUTION IN TIME STEP 100 STRESS PERIOD 2
 13 TOTAL ITERATIONS


 Solution SLN_1 summary
 ----------------------------------------------------------------------
 Total formulate time:  .1562500000000000E-01 seconds
 Total solution time:   .000000000000000 seconds


 MEMORY MANAGER TOTAL STORAGE BY DATA TYPE, IN KILOBYTES
 -------------------------------
                    ALLOCATED   
 DATA TYPE           MEMORY     
 -------------------------------
 Character        3.2730000     
 Logical          4.40000000E-02
 Integer          33.460000     
 Real             78.200000     
 -------------------------------
 Total            114.97700     
 -------------------------------


 
 Run end date and time (yyyy/mm/dd hh:mm:ss): 2022/07/17 17:08:31
 Elapsed run time:  1.222 Seconds
 Normal termination of simulation.
